
OS:Version,
  {719ff9f6-9aae-4f91-a82c-3460f23903d4}, !- Handle
  1.2.3;                                  !- Version Identifier

OS:Site,
  {8eb99685-726c-4731-afd8-97a7ac1b5860}, !- Handle
  USA FL-MIAMI,                           !- Name
  25.78,                                  !- Latitude {deg}
  -80.27,                                 !- Longitude {deg}
  -5,                                     !- Time Zone {hr}
  2,                                      !- Elevation {m}
  City;                                   !- Terrain

OS:SimulationControl,
  {405dfc9f-4197-4a76-9dd9-bb15b0ba54d3}, !- Handle
  Yes,                                    !- Do Zone Sizing Calculation
  Yes,                                    !- Do System Sizing Calculation
  Yes,                                    !- Do Plant Sizing Calculation
  No,                                     !- Run Simulation for Sizing Periods
  Yes,                                    !- Run Simulation for Weather File Run Periods
  0.04,                                   !- Loads Convergence Tolerance Value
  0.2,                                    !- Temperature Convergence Tolerance Value {deltaC}
  FullInteriorAndExterior,                !- Solar Distribution
  25,                                     !- Maximum Number of Warmup Days
  6;                                      !- Minimum Number of Warmup Days

OS:ElectricEquipment:Definition,
  {9d736321-eaba-438d-9bab-56461501fbdf}, !- Handle
  Perimeter_bot_ZN_1_PlugMisc_Equip Definition, !- Name
  Watts/Area,                             !- Design Level Calculation Method
  ,                                       !- Design Level {W}
  10.76,                                  !- Watts per Space Floor Area {W/m2}
  ,                                       !- Watts per Person {W/person}
  0,                                      !- Fraction Latent
  0.5,                                    !- Fraction Radiant
  0;                                      !- Fraction Lost

OS:ElectricEquipment,
  {caba6004-d2e2-40b9-be2c-28e59aee8466}, !- Handle
  Perimeter_bot_ZN_1_PlugMisc_Equip,      !- Name
  {9d736321-eaba-438d-9bab-56461501fbdf}, !- Electric Equipment Definition Name
  {22186007-be72-4b88-9342-a9e14306cb10}, !- Space or SpaceType Name
  {8f4f1592-9249-4a5a-87a9-756aa0f2221e}, !- Schedule Name
  ,                                       !- Multiplier
  General;                                !- End-Use Subcategory

OS:ThermalZone,
  {00fc3d14-b70d-46f3-89e2-7307862b353b}, !- Handle
  Perimeter_bot_ZN_1 Thermal Zone,        !- Name
  1,                                      !- Multiplier
  ,                                       !- Ceiling Height {m}
  ,                                       !- Volume {m3}
  ,                                       !- Floor Area {m2}
  ,                                       !- Zone Inside Convection Algorithm
  ,                                       !- Zone Outside Convection Algorithm
  ,                                       !- Zone Conditioning Equipment List Name
  {18072146-f490-4c65-8b88-e8519c31c8bf}, !- Zone Air Inlet Port List
  {55f5a094-2d8b-4180-9d6f-985cc3249bf0}, !- Zone Air Exhaust Port List
  {2d3ba7b3-6493-4fb5-900e-186d3b96f76a}, !- Zone Air Node Name
  ,                                       !- Zone Return Air Node Name
  ,                                       !- Primary Daylighting Control Name
  ,                                       !- Fraction of Zone Controlled by Primary Daylighting Control
  ,                                       !- Secondary Daylighting Control Name
  ,                                       !- Fraction of Zone Controlled by Secondary Daylighting Control
  ,                                       !- Illuminance Map Name
  {36c1d64d-1d6b-4173-a664-853f19042fc6}, !- Group Rendering Name
  {691f28f3-0a75-4547-99c0-dd96a1d691ea}, !- Thermostat Name
  No;                                     !- Use Ideal Air Loads

OS:Node,
  {f34a7109-7486-4c2b-86f7-e47b7ac453b1}, !- Handle
  {9e905ac5-affb-417f-99ab-0014334ae77c}, !- Name
  {2d3ba7b3-6493-4fb5-900e-186d3b96f76a}, !- Inlet Port
  ;                                       !- Outlet Port

OS:Connection,
  {2d3ba7b3-6493-4fb5-900e-186d3b96f76a}, !- Handle
  {98fb1a37-0f2b-491e-a3c7-3b39169c56e4}, !- Name
  {00fc3d14-b70d-46f3-89e2-7307862b353b}, !- Source Object
  11,                                     !- Outlet Port
  {f34a7109-7486-4c2b-86f7-e47b7ac453b1}, !- Target Object
  2;                                      !- Inlet Port

OS:PortList,
  {18072146-f490-4c65-8b88-e8519c31c8bf}, !- Handle
  {a37b4b5a-0b02-4598-a62c-5ec9c56beef4}, !- Name
  {00fc3d14-b70d-46f3-89e2-7307862b353b}; !- HVAC Component

OS:PortList,
  {55f5a094-2d8b-4180-9d6f-985cc3249bf0}, !- Handle
  {a25a40dc-130d-4bd4-86b6-fd7dd04eb497}, !- Name
  {00fc3d14-b70d-46f3-89e2-7307862b353b}; !- HVAC Component

OS:Sizing:Zone,
  {935a5cf4-2fa3-4928-b14a-5e7df201295a}, !- Handle
  {00fc3d14-b70d-46f3-89e2-7307862b353b}, !- Zone or ZoneList Name
  14,                                     !- Zone Cooling Design Supply Air Temperature {C}
  40,                                     !- Zone Heating Design Supply Air Temperature {C}
  0.0085,                                 !- Zone Cooling Design Supply Air Humidity Ratio {kg-H2O/kg-air}
  0.008,                                  !- Zone Heating Design Supply Air Humidity Ratio {kg-H2O/kg-air}
  ,                                       !- Zone Heating Sizing Factor
  ,                                       !- Zone Cooling Sizing Factor
  DesignDay,                              !- Cooling Design Air Flow Method
  ,                                       !- Cooling Design Air Flow Rate {m3/s}
  ,                                       !- Cooling Minimum Air Flow per Zone Floor Area {m3/s-m2}
  ,                                       !- Cooling Minimum Air Flow {m3/s}
  ,                                       !- Cooling Minimum Air Flow Fraction
  DesignDay,                              !- Heating Design Air Flow Method
  ,                                       !- Heating Design Air Flow Rate {m3/s}
  ,                                       !- Heating Maximum Air Flow per Zone Floor Area {m3/s-m2}
  ,                                       !- Heating Maximum Air Flow {m3/s}
  ,                                       !- Heating Maximum Air Flow Fraction
  ,                                       !- Design Zone Air Distribution Effectiveness in Cooling Mode
  ;                                       !- Design Zone Air Distribution Effectiveness in Heating Mode

OS:ZoneHVAC:EquipmentList,
  {63e19979-1cbb-4bd6-82a7-658330359210}, !- Handle
  {a8b1385d-d54f-48dd-8eec-5f0186d5c287}, !- Name
  {00fc3d14-b70d-46f3-89e2-7307862b353b}; !- Thermal Zone

OS:Space,
  {22186007-be72-4b88-9342-a9e14306cb10}, !- Handle
  Perimeter_bot_ZN_1,                     !- Name
  {f70d86ff-a68f-437e-895c-98f5cc9f579c}, !- Space Type Name
  ,                                       !- Default Construction Set Name
  ,                                       !- Default Schedule Set Name
  0,                                      !- Direction of Relative North {deg}
  0,                                      !- X Origin {m}
  0,                                      !- Y Origin {m}
  0,                                      !- Z Origin {m}
  {051085f1-69d9-405d-a96a-ccb2d2b5319c}, !- Building Story Name
  {00fc3d14-b70d-46f3-89e2-7307862b353b}, !- Thermal Zone Name
  Yes,                                    !- Part of Total Floor Area
  ;                                       !- Design Specification Outdoor Air Object Name

OS:ThermostatSetpoint:DualSetpoint,
  {691f28f3-0a75-4547-99c0-dd96a1d691ea}, !- Handle
  {211a7c30-33fb-4874-a403-27fca81cfb50}, !- Name
  {941174d7-d8f7-411f-a031-efa2256afc7f}, !- Heating Setpoint Temperature Schedule Name
  {b57a0d0e-5337-48ac-b95e-0933f0ebfa86}; !- Cooling Setpoint Temperature Schedule Name

OS:Schedule:Compact,
  {941174d7-d8f7-411f-a031-efa2256afc7f}, !- Handle
  HTGSETP_SCH,                            !- Name
  {0c5b264b-7d32-4356-a9d0-dc9f8d4875f9}, !- Schedule Type Limits Name
  Through: 12/31,                         !- Field 1
  For: Weekdays,                          !- Field 2
  Until: 06:00,                           !- Field 3
  15.6,                                   !- Field 4
  Until: 22:00,                           !- Field 5
  21.0,                                   !- Field 6
  Until: 24:00,                           !- Field 7
  15.6,                                   !- Field 8
  For SummerDesignDay,                    !- Field 9
  Until: 24:00,                           !- Field 10
  15.6,                                   !- Field 11
  For: Saturday,                          !- Field 12
  Until: 06:00,                           !- Field 13
  15.6,                                   !- Field 14
  Until: 18:00,                           !- Field 15
  21.0,                                   !- Field 16
  Until: 24:00,                           !- Field 17
  15.6,                                   !- Field 18
  For: WinterDesignDay,                   !- Field 19
  Until: 24:00,                           !- Field 20
  21.0,                                   !- Field 21
  For: AllOtherDays,                      !- Field 22
  Until: 24:00,                           !- Field 23
  15.6;                                   !- Field 24

OS:ScheduleTypeLimits,
  {0c5b264b-7d32-4356-a9d0-dc9f8d4875f9}, !- Handle
  Temperature,                            !- Name
  -60,                                    !- Lower Limit Value {BasedOnField A4}
  200,                                    !- Upper Limit Value {BasedOnField A4}
  CONTINUOUS,                             !- Numeric Type
  Temperature;                            !- Unit Type

OS:Schedule:Compact,
  {b57a0d0e-5337-48ac-b95e-0933f0ebfa86}, !- Handle
  CLGSETP_SCH,                            !- Name
  {0c5b264b-7d32-4356-a9d0-dc9f8d4875f9}, !- Schedule Type Limits Name
  Through: 12/31,                         !- Field 1
  For: Weekdays SummerDesignDay,          !- Field 2
  Until: 06:00,                           !- Field 3
  26.7,                                   !- Field 4
  Until: 22:00,                           !- Field 5
  24.0,                                   !- Field 6
  Until: 24:00,                           !- Field 7
  26.7,                                   !- Field 8
  For: Saturday,                          !- Field 9
  Until: 06:00,                           !- Field 10
  26.7,                                   !- Field 11
  Until: 18:00,                           !- Field 12
  24.0,                                   !- Field 13
  Until: 24:00,                           !- Field 14
  26.7,                                   !- Field 15
  For WinterDesignDay,                    !- Field 16
  Until: 24:00,                           !- Field 17
  26.7,                                   !- Field 18
  For: AllOtherDays,                      !- Field 19
  Until: 24:00,                           !- Field 20
  26.7;                                   !- Field 21

OS:Schedule:Compact,
  {8f4f1592-9249-4a5a-87a9-756aa0f2221e}, !- Handle
  BLDG_EQUIP_SCH,                         !- Name
  {9fd89fb2-6b51-4140-8ca1-be058ef8ecce}, !- Schedule Type Limits Name
  Through: 12/31,                         !- Field 1
  For: Weekdays,                          !- Field 2
  Until: 08:00,                           !- Field 3
  0.40,                                   !- Field 4
  Until: 12:00,                           !- Field 5
  0.90,                                   !- Field 6
  Until: 13:00,                           !- Field 7
  0.80,                                   !- Field 8
  Until: 17:00,                           !- Field 9
  0.90,                                   !- Field 10
  Until: 18:00,                           !- Field 11
  0.80,                                   !- Field 12
  Until: 20:00,                           !- Field 13
  0.60,                                   !- Field 14
  Until: 22:00,                           !- Field 15
  0.50,                                   !- Field 16
  Until: 24:00,                           !- Field 17
  0.40,                                   !- Field 18
  For: Saturday,                          !- Field 19
  Until: 06:00,                           !- Field 20
  0.30,                                   !- Field 21
  Until: 08:00,                           !- Field 22
  0.4,                                    !- Field 23
  Until: 14:00,                           !- Field 24
  0.5,                                    !- Field 25
  Until: 17:00,                           !- Field 26
  0.35,                                   !- Field 27
  Until: 24:00,                           !- Field 28
  0.30,                                   !- Field 29
  For: SummerDesignDay,                   !- Field 30
  Until: 24:00,                           !- Field 31
  1.0,                                    !- Field 32
  For: WinterDesignDay,                   !- Field 33
  Until: 24:00,                           !- Field 34
  0.0,                                    !- Field 35
  For: AllOtherDays,                      !- Field 36
  Until: 24:00,                           !- Field 37
  0.30;                                   !- Field 38

OS:ScheduleTypeLimits,
  {9fd89fb2-6b51-4140-8ca1-be058ef8ecce}, !- Handle
  Fraction,                               !- Name
  0,                                      !- Lower Limit Value {BasedOnField A4}
  1,                                      !- Upper Limit Value {BasedOnField A4}
  CONTINUOUS;                             !- Numeric Type

OS:ThermostatSetpoint:DualSetpoint,
  {0087c107-4ed4-460e-b3b9-792a2b6c0f77}, !- Handle
  {8562834b-fa4f-4823-9a11-1d6f73aff6ec}, !- Name
  {941174d7-d8f7-411f-a031-efa2256afc7f}, !- Heating Setpoint Temperature Schedule Name
  {b57a0d0e-5337-48ac-b95e-0933f0ebfa86}; !- Cooling Setpoint Temperature Schedule Name

OS:Lights:Definition,
  {b150655c-4da4-428d-a01e-616e42faef21}, !- Handle
  Perimeter_mid_ZN_3_Lights Definition,   !- Name
  Watts/Area,                             !- Design Level Calculation Method
  ,                                       !- Lighting Level {W}
  16.14,                                  !- Watts per Space Floor Area {W/m2}
  ,                                       !- Watts per Person {W/person}
  0.7,                                    !- Fraction Radiant
  0.2,                                    !- Fraction Visible
  0,                                      !- Return Air Fraction
  No;                                     !- Return Air Fraction Calculated from Plenum Temperature

OS:Lights,
  {e2d18609-5112-4433-be9a-50471ac92fd5}, !- Handle
  Perimeter_mid_ZN_3_Lights,              !- Name
  {b150655c-4da4-428d-a01e-616e42faef21}, !- Lights Definition Name
  {ad08b95e-7d13-4085-98a3-a37e1d063c00}, !- Space or SpaceType Name
  {421a9e3d-81c7-4433-a21e-95aef4b54216}, !- Schedule Name
  1,                                      !- Fraction Replaceable
  ,                                       !- Multiplier
  General;                                !- End-Use Subcategory

OS:ThermalZone,
  {5934d6db-9d86-4acf-9002-e29a5df01ee0}, !- Handle
  Perimeter_mid_ZN_3 Thermal Zone,        !- Name
  10,                                     !- Multiplier
  ,                                       !- Ceiling Height {m}
  ,                                       !- Volume {m3}
  ,                                       !- Floor Area {m2}
  ,                                       !- Zone Inside Convection Algorithm
  ,                                       !- Zone Outside Convection Algorithm
  ,                                       !- Zone Conditioning Equipment List Name
  {a9fd56c8-41ac-4c61-b251-acaa08645c68}, !- Zone Air Inlet Port List
  {a65ccb9d-21b7-4e11-9e26-39f58874c69e}, !- Zone Air Exhaust Port List
  {f462092d-d7f4-4b8c-8058-9a7f48cadbdc}, !- Zone Air Node Name
  ,                                       !- Zone Return Air Node Name
  ,                                       !- Primary Daylighting Control Name
  ,                                       !- Fraction of Zone Controlled by Primary Daylighting Control
  ,                                       !- Secondary Daylighting Control Name
  ,                                       !- Fraction of Zone Controlled by Secondary Daylighting Control
  ,                                       !- Illuminance Map Name
  {5da116a1-d9c4-472d-8088-5cd4812631fd}, !- Group Rendering Name
  {0fd11319-0fe7-4d1b-b1b9-e98d8661d242}, !- Thermostat Name
  No;                                     !- Use Ideal Air Loads

OS:Node,
  {9932a9e6-64fa-4cce-b610-7f06e43c269a}, !- Handle
  {f76dd872-41d2-4641-82a6-78bc132a51d8}, !- Name
  {f462092d-d7f4-4b8c-8058-9a7f48cadbdc}, !- Inlet Port
  ;                                       !- Outlet Port

OS:Connection,
  {f462092d-d7f4-4b8c-8058-9a7f48cadbdc}, !- Handle
  {f4fa5d30-4b2b-4326-a236-cbf3da263e69}, !- Name
  {5934d6db-9d86-4acf-9002-e29a5df01ee0}, !- Source Object
  11,                                     !- Outlet Port
  {9932a9e6-64fa-4cce-b610-7f06e43c269a}, !- Target Object
  2;                                      !- Inlet Port

OS:PortList,
  {a9fd56c8-41ac-4c61-b251-acaa08645c68}, !- Handle
  {22d09086-05b1-44a1-8bcb-5848364d7191}, !- Name
  {5934d6db-9d86-4acf-9002-e29a5df01ee0}; !- HVAC Component

OS:PortList,
  {a65ccb9d-21b7-4e11-9e26-39f58874c69e}, !- Handle
  {b814746d-0cb2-46c5-b093-7e0e235d6b47}, !- Name
  {5934d6db-9d86-4acf-9002-e29a5df01ee0}; !- HVAC Component

OS:Sizing:Zone,
  {84ddb978-bd9e-4d63-8bf1-f6c32cf84d1c}, !- Handle
  {5934d6db-9d86-4acf-9002-e29a5df01ee0}, !- Zone or ZoneList Name
  14,                                     !- Zone Cooling Design Supply Air Temperature {C}
  40,                                     !- Zone Heating Design Supply Air Temperature {C}
  0.0085,                                 !- Zone Cooling Design Supply Air Humidity Ratio {kg-H2O/kg-air}
  0.008,                                  !- Zone Heating Design Supply Air Humidity Ratio {kg-H2O/kg-air}
  ,                                       !- Zone Heating Sizing Factor
  ,                                       !- Zone Cooling Sizing Factor
  DesignDay,                              !- Cooling Design Air Flow Method
  ,                                       !- Cooling Design Air Flow Rate {m3/s}
  ,                                       !- Cooling Minimum Air Flow per Zone Floor Area {m3/s-m2}
  ,                                       !- Cooling Minimum Air Flow {m3/s}
  ,                                       !- Cooling Minimum Air Flow Fraction
  DesignDay,                              !- Heating Design Air Flow Method
  ,                                       !- Heating Design Air Flow Rate {m3/s}
  ,                                       !- Heating Maximum Air Flow per Zone Floor Area {m3/s-m2}
  ,                                       !- Heating Maximum Air Flow {m3/s}
  ,                                       !- Heating Maximum Air Flow Fraction
  ,                                       !- Design Zone Air Distribution Effectiveness in Cooling Mode
  ;                                       !- Design Zone Air Distribution Effectiveness in Heating Mode

OS:ZoneHVAC:EquipmentList,
  {6c475f2c-397f-469d-8154-03233348a206}, !- Handle
  {0db050bd-dc83-476d-a238-d9df12897152}, !- Name
  {5934d6db-9d86-4acf-9002-e29a5df01ee0}; !- Thermal Zone

OS:Space,
  {ad08b95e-7d13-4085-98a3-a37e1d063c00}, !- Handle
  Perimeter_mid_ZN_3,                     !- Name
  {f70d86ff-a68f-437e-895c-98f5cc9f579c}, !- Space Type Name
  ,                                       !- Default Construction Set Name
  ,                                       !- Default Schedule Set Name
  0,                                      !- Direction of Relative North {deg}
  0,                                      !- X Origin {m}
  0,                                      !- Y Origin {m}
  0,                                      !- Z Origin {m}
  {dcee0373-e979-4f10-a7e4-fa32c0c4c857}, !- Building Story Name
  {5934d6db-9d86-4acf-9002-e29a5df01ee0}, !- Thermal Zone Name
  Yes;                                    !- Part of Total Floor Area

OS:ThermostatSetpoint:DualSetpoint,
  {0fd11319-0fe7-4d1b-b1b9-e98d8661d242}, !- Handle
  {11942073-9839-47bd-9e13-2446b9eee882}, !- Name
  {941174d7-d8f7-411f-a031-efa2256afc7f}, !- Heating Setpoint Temperature Schedule Name
  {b57a0d0e-5337-48ac-b95e-0933f0ebfa86}; !- Cooling Setpoint Temperature Schedule Name

OS:Schedule:Compact,
  {421a9e3d-81c7-4433-a21e-95aef4b54216}, !- Handle
  BLDG_LIGHT_SCH,                         !- Name
  {9fd89fb2-6b51-4140-8ca1-be058ef8ecce}, !- Schedule Type Limits Name
  Through: 12/31,                         !- Field 1
  For: Weekdays,                          !- Field 2
  Until: 05:00,                           !- Field 3
  0.05,                                   !- Field 4
  Until: 07:00,                           !- Field 5
  0.1,                                    !- Field 6
  Until: 08:00,                           !- Field 7
  0.3,                                    !- Field 8
  Until: 17:00,                           !- Field 9
  0.9,                                    !- Field 10
  Until: 18:00,                           !- Field 11
  0.7,                                    !- Field 12
  Until: 20:00,                           !- Field 13
  0.5,                                    !- Field 14
  Until: 22:00,                           !- Field 15
  0.3,                                    !- Field 16
  Until: 23:00,                           !- Field 17
  0.1,                                    !- Field 18
  Until: 24:00,                           !- Field 19
  0.05,                                   !- Field 20
  For: Saturday,                          !- Field 21
  Until: 06:00,                           !- Field 22
  0.05,                                   !- Field 23
  Until: 08:00,                           !- Field 24
  0.1,                                    !- Field 25
  Until: 14:00,                           !- Field 26
  0.5,                                    !- Field 27
  Until: 17:00,                           !- Field 28
  0.15,                                   !- Field 29
  Until: 24:00,                           !- Field 30
  0.05,                                   !- Field 31
  For: SummerDesignDay,                   !- Field 32
  Until: 24:00,                           !- Field 33
  1.0,                                    !- Field 34
  For: WinterDesignDay,                   !- Field 35
  Until: 24:00,                           !- Field 36
  0.0,                                    !- Field 37
  For: AllOtherDays,                      !- Field 38
  Until: 24:00,                           !- Field 39
  0.05;                                   !- Field 40

OS:Schedule:Compact,
  {244c3120-c98f-4acf-a6a0-49a5e698d1e7}, !- Handle
  Water Equipment Sensible fract sched,   !- Name
  {9fd89fb2-6b51-4140-8ca1-be058ef8ecce}, !- Schedule Type Limits Name
  Through: 12/31,                         !- Field 1
  For: AllDays,                           !- Field 2
  Until: 24:00,                           !- Field 3
  0.2;                                    !- Field 4

OS:Surface,
  {0a0f3e64-4ed0-4282-a2c3-daba36f5afe7}, !- Handle
  TopFloor_Plenum_Floor_1,                !- Name
  Floor,                                  !- Surface Type
  {cc31c081-cb15-4856-80e8-494382dbe049}, !- Construction Name
  {29a35fed-a5ff-49ca-8fd9-e12d2f30acbe}, !- Space Name
  Surface,                                !- Outside Boundary Condition
  {ace0f62f-e5f6-4369-87e0-6dd8643b26b9}, !- Outside Boundary Condition Object
  NoSun,                                  !- Sun Exposure
  NoWind,                                 !- Wind Exposure
  ,                                       !- View Factor to Ground
  ,                                       !- Number of Vertices
  68.534, 4.5732, 46.3392,                !- X,Y,Z Vertex 1 {m}
  73.1072, 0, 46.3392,                    !- X,Y,Z Vertex 2 {m}
  0, 0, 46.3392,                          !- X,Y,Z Vertex 3 {m}
  4.5732, 4.5732, 46.3392;                !- X,Y,Z Vertex 4 {m}

OS:Construction,
  {cc31c081-cb15-4856-80e8-494382dbe049}, !- Handle
  DropCeiling,                            !- Name
  {b73f3903-1310-4150-9fa9-add7f7695aa4}, !- Surface Rendering Name
  {9cdcc00e-f04e-4a3a-bc19-6ff090003c2c}; !- Layer 1

OS:Material,
  {9cdcc00e-f04e-4a3a-bc19-6ff090003c2c}, !- Handle
  Std AC02,                               !- Name
  MediumSmooth,                           !- Roughness
  0.0127,                                 !- Thickness {m}
  0.057,                                  !- Conductivity {W/m-K}
  288,                                    !- Density {kg/m3}
  1339,                                   !- Specific Heat {J/kg-K}
  0.9,                                    !- Thermal Absorptance
  0.7,                                    !- Solar Absorptance
  0.2;                                    !- Visible Absorptance

OS:ThermalZone,
  {1987eab8-dc16-46d1-8fbd-c0a60abb8b0c}, !- Handle
  TopFloor_Plenum Thermal Zone,           !- Name
  1,                                      !- Multiplier
  ,                                       !- Ceiling Height {m}
  ,                                       !- Volume {m3}
  ,                                       !- Floor Area {m2}
  ,                                       !- Zone Inside Convection Algorithm
  ,                                       !- Zone Outside Convection Algorithm
  ,                                       !- Zone Conditioning Equipment List Name
  {a6c032d1-229e-4bd8-93ba-7fcdc1740693}, !- Zone Air Inlet Port List
  {22e42254-e78a-4765-b066-ae32081b3134}, !- Zone Air Exhaust Port List
  {0e0d5da5-cdf5-49b2-8e47-469642c043a3}, !- Zone Air Node Name
  ,                                       !- Zone Return Air Node Name
  ,                                       !- Primary Daylighting Control Name
  ,                                       !- Fraction of Zone Controlled by Primary Daylighting Control
  ,                                       !- Secondary Daylighting Control Name
  ,                                       !- Fraction of Zone Controlled by Secondary Daylighting Control
  ,                                       !- Illuminance Map Name
  {12d36a95-d551-4334-ad76-abe1e45ea177}, !- Group Rendering Name
  ,                                       !- Thermostat Name
  No;                                     !- Use Ideal Air Loads

OS:Node,
  {0d194b77-467d-4607-9f3c-8f8e4ff643c4}, !- Handle
  {3eaea226-ba89-4454-a554-d04817d8aeb4}, !- Name
  {0e0d5da5-cdf5-49b2-8e47-469642c043a3}, !- Inlet Port
  ;                                       !- Outlet Port

OS:Connection,
  {0e0d5da5-cdf5-49b2-8e47-469642c043a3}, !- Handle
  {11911067-84cf-4572-a66b-299bacf729a6}, !- Name
  {1987eab8-dc16-46d1-8fbd-c0a60abb8b0c}, !- Source Object
  11,                                     !- Outlet Port
  {0d194b77-467d-4607-9f3c-8f8e4ff643c4}, !- Target Object
  2;                                      !- Inlet Port

OS:PortList,
  {a6c032d1-229e-4bd8-93ba-7fcdc1740693}, !- Handle
  {b2d80648-b5c9-451c-bbb0-2e26d61960a6}, !- Name
  {1987eab8-dc16-46d1-8fbd-c0a60abb8b0c}; !- HVAC Component

OS:PortList,
  {22e42254-e78a-4765-b066-ae32081b3134}, !- Handle
  {40ac2355-2d7d-48f6-9457-f4d15bf47a5b}, !- Name
  {1987eab8-dc16-46d1-8fbd-c0a60abb8b0c}; !- HVAC Component

OS:Sizing:Zone,
  {b7222ae8-b53d-4f45-9c71-f940f745e493}, !- Handle
  {1987eab8-dc16-46d1-8fbd-c0a60abb8b0c}, !- Zone or ZoneList Name
  14,                                     !- Zone Cooling Design Supply Air Temperature {C}
  40,                                     !- Zone Heating Design Supply Air Temperature {C}
  0.0085,                                 !- Zone Cooling Design Supply Air Humidity Ratio {kg-H2O/kg-air}
  0.008,                                  !- Zone Heating Design Supply Air Humidity Ratio {kg-H2O/kg-air}
  ,                                       !- Zone Heating Sizing Factor
  ,                                       !- Zone Cooling Sizing Factor
  DesignDay,                              !- Cooling Design Air Flow Method
  ,                                       !- Cooling Design Air Flow Rate {m3/s}
  ,                                       !- Cooling Minimum Air Flow per Zone Floor Area {m3/s-m2}
  ,                                       !- Cooling Minimum Air Flow {m3/s}
  ,                                       !- Cooling Minimum Air Flow Fraction
  DesignDay,                              !- Heating Design Air Flow Method
  ,                                       !- Heating Design Air Flow Rate {m3/s}
  ,                                       !- Heating Maximum Air Flow per Zone Floor Area {m3/s-m2}
  ,                                       !- Heating Maximum Air Flow {m3/s}
  ,                                       !- Heating Maximum Air Flow Fraction
  ,                                       !- Design Zone Air Distribution Effectiveness in Cooling Mode
  ;                                       !- Design Zone Air Distribution Effectiveness in Heating Mode

OS:ZoneHVAC:EquipmentList,
  {60224874-e0d4-4c77-a61d-8fb26d6cf1c6}, !- Handle
  {90ef39f8-35c4-40cb-8981-40ab834254ab}, !- Name
  {1987eab8-dc16-46d1-8fbd-c0a60abb8b0c}; !- Thermal Zone

OS:Space,
  {29a35fed-a5ff-49ca-8fd9-e12d2f30acbe}, !- Handle
  TopFloor_Plenum,                        !- Name
  ,                                       !- Space Type Name
  ,                                       !- Default Construction Set Name
  ,                                       !- Default Schedule Set Name
  0,                                      !- Direction of Relative North {deg}