
OS:Version,
  {46b46673-83b6-4592-a763-c18e7db06c9c}, !- Handle
  1.2.1;                                  !- Version Identifier

OS:Site,
  {6a5a7537-c96f-466c-afef-f1eea3b4fd41}, !- Handle
  USA FL-MIAMI,                           !- Name
  25.78,                                  !- Latitude {deg}
  -80.27,                                 !- Longitude {deg}
  -5,                                     !- Time Zone {hr}
  2,                                      !- Elevation {m}
  City;                                   !- Terrain

OS:SimulationControl,
  {59db0bc5-dd7b-4e5e-8741-95edb9c22582}, !- Handle
  Yes,                                    !- Do Zone Sizing Calculation
  Yes,                                    !- Do System Sizing Calculation
  Yes,                                    !- Do Plant Sizing Calculation
  No,                                     !- Run Simulation for Sizing Periods
  Yes,                                    !- Run Simulation for Weather File Run Periods
  0.04,                                   !- Loads Convergence Tolerance Value
  0.2,                                    !- Temperature Convergence Tolerance Value {deltaC}
  FullInteriorAndExterior,                !- Solar Distribution
  25,                                     !- Maximum Number of Warmup Days
  6;                                      !- Minimum Number of Warmup Days

OS:DesignSpecification:OutdoorAir,
  {203bb5cc-9ae3-4a70-8bd8-9f769e5e1241}, !- Handle
  SZ DSOA M S1 Apartment,                 !- Name
  ,                                       !- Outdoor Air Method
  ,                                       !- Outdoor Air Flow per Person {m3/s-person}
  ,                                       !- Outdoor Air Flow per Floor Area {m3/s-m2}
  0.04248,                                !- Outdoor Air Flow Rate {m3/s}
  ,                                       !- Outdoor Air Flow Air Changes per Hour {1/hr}
  ;                                       !- Outdoor Air Flow Rate Fraction Schedule Name

OS:SubSurface,
  {31c3943b-835f-40d9-8cf1-409fa0283f91}, !- Handle
  MWindow4,                               !- Name
  FixedWindow,                            !- Sub Surface Type
  {6e75123d-f4aa-4ea3-89b4-ee2d2f49b81a}, !- Construction Name
  {d148baa5-5c42-4c48-9388-2fb4664d17e7}, !- Surface Name
  ,                                       !- Outside Boundary Condition Object
  ,                                       !- View Factor to Ground
  ,                                       !- Shading Control Name
  ,                                       !- Frame and Divider Name
  1,                                      !- Multiplier
  ,                                       !- Number of Vertices
  7.924, 7.6196, 2.1731,                  !- X,Y,Z Vertex 1 {m}
  7.924, 7.6196, 0.954,                   !- X,Y,Z Vertex 2 {m}
  3.657, 7.6196, 0.954,                   !- X,Y,Z Vertex 3 {m}
  3.657, 7.6196, 2.1731;                  !- X,Y,Z Vertex 4 {m}

OS:Construction,
  {6e75123d-f4aa-4ea3-89b4-ee2d2f49b81a}, !- Handle
  Window Res Operable,                    !- Name
  {153b8fb7-e381-4e82-9d1d-d7f402d86f4d}, !- Surface Rendering Name
  {a8fc5100-98dc-4d0a-8712-4d89a04c3504}; !- Layer 1

OS:WindowMaterial:SimpleGlazingSystem,
  {a8fc5100-98dc-4d0a-8712-4d89a04c3504}, !- Handle
  Res Operable Assembly Window,           !- Name
  6.92716,                                !- U-Factor {W/m2-K}
  0.54;                                   !- Solar Heat Gain Coefficient

OS:Surface,
  {d148baa5-5c42-4c48-9388-2fb4664d17e7}, !- Handle
  m NWall NWA,                            !- Name
  Wall,                                   !- Surface Type
  {65005972-690d-46fd-aa03-d8d07ffd062e}, !- Construction Name
  {d99522ad-7534-4438-ad77-f45a481d9808}, !- Space Name
  Outdoors,                               !- Outside Boundary Condition
  ,                                       !- Outside Boundary Condition Object
  SunExposed,                             !- Sun Exposure
  WindExposed,                            !- Wind Exposure
  ,                                       !- View Factor to Ground
  ,                                       !- Number of Vertices
  11.5818, 7.6196, 3.0478,                !- X,Y,Z Vertex 1 {m}
  11.5818, 7.6196, 0,                     !- X,Y,Z Vertex 2 {m}
  0, 7.6196, 0,                           !- X,Y,Z Vertex 3 {m}
  0, 7.6196, 3.0478;                      !- X,Y,Z Vertex 4 {m}

OS:Construction,
  {65005972-690d-46fd-aa03-d8d07ffd062e}, !- Handle
  Steel Frame Res Ext Wall,               !- Name
  {a2f43c63-e626-445e-af26-f29e54fa2a1e}, !- Surface Rendering Name
  {0c5382f5-fd23-4190-8135-6537de09d23d}, !- Layer 1
  {06cafb36-2341-4e43-9805-b11743f46978}, !- Layer 2
  {69f9f716-12b2-4f35-8cd6-cb354b34281e}; !- Layer 3

OS:Material,
  {0c5382f5-fd23-4190-8135-6537de09d23d}, !- Handle
  Wood Siding,                            !- Name
  MediumSmooth,                           !- Roughness
  0.01,                                   !- Thickness {m}
  0.11,                                   !- Conductivity {W/m-K}
  544.62,                                 !- Density {kg/m3}
  1210,                                   !- Specific Heat {J/kg-K}
  0.9,                                    !- Thermal Absorptance
  0.78,                                   !- Solar Absorptance
  0.78;                                   !- Visible Absorptance

OS:Material,
  {06cafb36-2341-4e43-9805-b11743f46978}, !- Handle
  Steel Frame Res Wall Insulation,        !- Name
  MediumRough,                            !- Roughness
  0.0218416164001339,                     !- Thickness {m}
  0.049,                                  !- Conductivity {W/m-K}
  265,                                    !- Density {kg/m3}
  836.8,                                  !- Specific Heat {J/kg-K}
  0.9,                                    !- Thermal Absorptance
  0.7,                                    !- Solar Absorptance
  0.7;                                    !- Visible Absorptance

OS:Material,
  {69f9f716-12b2-4f35-8cd6-cb354b34281e}, !- Handle
  1/2IN Gypsum,                           !- Name
  Smooth,                                 !- Roughness
  0.0127,                                 !- Thickness {m}
  0.16,                                   !- Conductivity {W/m-K}
  784.9,                                  !- Density {kg/m3}
  830,                                    !- Specific Heat {J/kg-K}
  0.9,                                    !- Thermal Absorptance
  0.92,                                   !- Solar Absorptance
  0.92;                                   !- Visible Absorptance

OS:ThermalZone,
  {4aa26c79-adb6-457b-a2b9-3f16b18c4b23}, !- Handle
  M NW Apartment Thermal Zone,            !- Name
  2,                                      !- Multiplier
  ,                                       !- Ceiling Height {m}
  ,                                       !- Volume {m3}
  ,                                       !- Floor Area {m2}
  ,                                       !- Zone Inside Convection Algorithm
  ,                                       !- Zone Outside Convection Algorithm
  ,                                       !- Zone Conditioning Equipment List Name
  {dc1d9730-61e1-43af-a869-65898a2c33d8}, !- Zone Air Inlet Port List
  {c9463254-af9a-4886-8e5c-bef1e43f1cc2}, !- Zone Air Exhaust Port List
  {c1ca8c4a-911c-493c-9987-e78e39711fec}, !- Zone Air Node Name
  ,                                       !- Zone Return Air Node Name
  ,                                       !- Primary Daylighting Control Name
  ,                                       !- Fraction of Zone Controlled by Primary Daylighting Control
  ,                                       !- Secondary Daylighting Control Name
  ,                                       !- Fraction of Zone Controlled by Secondary Daylighting Control
  ,                                       !- Illuminance Map Name
  {93baa7e9-bdc6-4cb4-b419-58055ea54e2b}, !- Group Rendering Name
  {d1dc3a2f-7211-41de-bf5a-35b7aa119519}, !- Thermostat Name
  No;                                     !- Use Ideal Air Loads

OS:Node,
  {3a1c5306-fd41-445a-874b-45af14bf50ab}, !- Handle
  {54f2759b-658d-427e-ab43-8bdcc253fca7}, !- Name
  {c1ca8c4a-911c-493c-9987-e78e39711fec}, !- Inlet Port
  ;                                       !- Outlet Port

OS:Connection,
  {c1ca8c4a-911c-493c-9987-e78e39711fec}, !- Handle
  {0d05e7d4-219a-48ff-b765-12cada5ce1a7}, !- Name
  {4aa26c79-adb6-457b-a2b9-3f16b18c4b23}, !- Source Object
  11,                                     !- Outlet Port
  {3a1c5306-fd41-445a-874b-45af14bf50ab}, !- Target Object
  2;                                      !- Inlet Port

OS:PortList,
  {dc1d9730-61e1-43af-a869-65898a2c33d8}, !- Handle
  {a92e2caf-bb61-46c7-87b9-41b50604d7af}, !- Name
  {4aa26c79-adb6-457b-a2b9-3f16b18c4b23}; !- HVAC Component

OS:PortList,
  {c9463254-af9a-4886-8e5c-bef1e43f1cc2}, !- Handle
  {312266a0-68d1-4fec-adb2-92f1ca9d7c72}, !- Name
  {4aa26c79-adb6-457b-a2b9-3f16b18c4b23}; !- HVAC Component

OS:Sizing:Zone,
  {41132191-d904-464c-8bf6-559dfb154c65}, !- Handle
  {4aa26c79-adb6-457b-a2b9-3f16b18c4b23}, !- Zone or ZoneList Name
  14,                                     !- Zone Cooling Design Supply Air Temperature {C}
  40,                                     !- Zone Heating Design Supply Air Temperature {C}
  0.0085,                                 !- Zone Cooling Design Supply Air Humidity Ratio {kg-H2O/kg-air}
  0.008,                                  !- Zone Heating Design Supply Air Humidity Ratio {kg-H2O/kg-air}
  ,                                       !- Zone Heating Sizing Factor
  ,                                       !- Zone Cooling Sizing Factor
  DesignDay,                              !- Cooling Design Air Flow Method
  ,                                       !- Cooling Design Air Flow Rate {m3/s}
  ,                                       !- Cooling Minimum Air Flow per Zone Floor Area {m3/s-m2}
  ,                                       !- Cooling Minimum Air Flow {m3/s}
  ,                                       !- Cooling Minimum Air Flow Fraction
  DesignDay,                              !- Heating Design Air Flow Method
  ,                                       !- Heating Design Air Flow Rate {m3/s}
  ,                                       !- Heating Maximum Air Flow per Zone Floor Area {m3/s-m2}
  ,                                       !- Heating Maximum Air Flow {m3/s}
  ,                                       !- Heating Maximum Air Flow Fraction
  ,                                       !- Design Zone Air Distribution Effectiveness in Cooling Mode
  ;                                       !- Design Zone Air Distribution Effectiveness in Heating Mode

OS:ZoneHVAC:EquipmentList,
  {ffb1b1a7-f2d5-4780-839f-5beb0df1deec}, !- Handle
  {c46b7d22-0bb8-4f4b-8d35-189804165bf4}, !- Name
  {4aa26c79-adb6-457b-a2b9-3f16b18c4b23}; !- Thermal Zone

OS:Space,
  {d99522ad-7534-4438-ad77-f45a481d9808}, !- Handle
  M NW Apartment,                         !- Name
  {7d81b0b2-7a71-4f92-9512-c66dc47e8822}, !- Space Type Name
  ,                                       !- Default Construction Set Name
  ,                                       !- Default Schedule Set Name
  0,                                      !- Direction of Relative North {deg}
  0,                                      !- X Origin {m}
  9.2959,                                 !- Y Origin {m}
  3.0478,                                 !- Z Origin {m}
  {b78267d8-dc43-4618-9867-febff16bb618}, !- Building Story Name
  {4aa26c79-adb6-457b-a2b9-3f16b18c4b23}, !- Thermal Zone Name
  Yes,                                    !- Part of Total Floor Area
  ;                                       !- Design Specification Outdoor Air Object Name

OS:ThermostatSetpoint:DualSetpoint,
  {d1dc3a2f-7211-41de-bf5a-35b7aa119519}, !- Handle
  {25f01245-acb3-49fd-89d0-e8c9ab8a9b26}, !- Name
  {695f15fc-6f41-4227-af5a-ea34a61120c0}, !- Heating Setpoint Temperature Schedule Name
  {492115ec-b94a-4f72-8c59-c0dbae0304ef}; !- Cooling Setpoint Temperature Schedule Name

OS:Schedule:Compact,
  {695f15fc-6f41-4227-af5a-ea34a61120c0}, !- Handle
  APT_HTGSETP_SCH,                        !- Name
  {541203e9-fc77-4f94-9c91-4727916ea730}, !- Schedule Type Limits Name
  THROUGH: 12/31,                         !- Field 1
  FOR:AllDays,                            !- Field 2
  UNTIL: 24:00,                           !- Field 3
  21.1;                                   !- Field 4

OS:ScheduleTypeLimits,
  {541203e9-fc77-4f94-9c91-4727916ea730}, !- Handle
  Temperature,                            !- Name
  -60,                                    !- Lower Limit Value {BasedOnField A4}
  200,                                    !- Upper Limit Value {BasedOnField A4}
  CONTINUOUS,                             !- Numeric Type
  Temperature;                            !- Unit Type

OS:Schedule:Compact,
  {492115ec-b94a-4f72-8c59-c0dbae0304ef}, !- Handle
  APT_CLGSETP_SCH,                        !- Name
  {541203e9-fc77-4f94-9c91-4727916ea730}, !- Schedule Type Limits Name
  THROUGH: 12/31,                         !- Field 1
  FOR:AllDays,                            !- Field 2
  UNTIL: 24:00,                           !- Field 3
  23.9;                                   !- Field 4

OS:Schedule:Compact,
  {cfc92e40-9d1c-4a05-9f75-d41f52e4c33a}, !- Handle
  INFIL_SCH,                              !- Name
  {e4a5868d-2e64-4e36-a4fa-e11f8629f7a8}, !- Schedule Type Limits Name
  Through: 12/31,                         !- Field 1
  For: AllDays,                           !- Field 2
  Until: 24:00,                           !- Field 3
  1;                                      !- Field 4

OS:ScheduleTypeLimits,
  {e4a5868d-2e64-4e36-a4fa-e11f8629f7a8}, !- Handle
  Fraction,                               !- Name
  0,                                      !- Lower Limit Value {BasedOnField A4}
  1,                                      !- Upper Limit Value {BasedOnField A4}
  CONTINUOUS;                             !- Numeric Type

OS:Surface,
  {eecc8055-1938-4a43-9ae0-5b0a8371d412}, !- Handle
  g Wall 4,                               !- Name
  Wall,                                   !- Surface Type
  {ce2b865b-abc5-47cc-bc58-8a48d4cea1c5}, !- Construction Name
  {037e50ef-a53a-437b-910b-4caca185eb35}, !- Space Name
  Surface,                                !- Outside Boundary Condition
  {22084ac1-f851-46a1-80eb-03bd129f04d6}, !- Outside Boundary Condition Object
  NoSun,                                  !- Sun Exposure
  NoWind,                                 !- Wind Exposure
  ,                                       !- View Factor to Ground
  ,                                       !- Number of Vertices
  23.1636, 1.6763, 3.0478,                !- X,Y,Z Vertex 1 {m}
  23.1636, 1.6763, 0,                     !- X,Y,Z Vertex 2 {m}
  11.5818, 1.6763, 0,                     !- X,Y,Z Vertex 3 {m}
  11.5818, 1.6763, 3.0478;                !- X,Y,Z Vertex 4 {m}

OS:Construction,
  {ce2b865b-abc5-47cc-bc58-8a48d4cea1c5}, !- Handle
  int-walls,                              !- Name
  {4b2f5c43-9b89-44f6-858f-a7e12e88ec8e}, !- Surface Rendering Name
  {69f9f716-12b2-4f35-8cd6-cb354b34281e}, !- Layer 1
  {69f9f716-12b2-4f35-8cd6-cb354b34281e}; !- Layer 2

OS:ThermalZone,
  {334e885f-0516-444e-85f9-8d065172f1ed}, !- Handle
  G Corridor Thermal Zone,                !- Name
  1,                                      !- Multiplier
  ,                                       !- Ceiling Height {m}
  ,                                       !- Volume {m3}
  ,                                       !- Floor Area {m2}
  ,                                       !- Zone Inside Convection Algorithm
  ,                                       !- Zone Outside Convection Algorithm
  ,                                       !- Zone Conditioning Equipment List Name
  {10204fff-d1e7-45e6-8038-62589be3badb}, !- Zone Air Inlet Port List
  {27f89bbe-7f24-4100-adb6-ab2a05ce7b20}, !- Zone Air Exhaust Port List
  {9164ee42-1aa2-4c3d-870b-86d879ec2db4}, !- Zone Air Node Name
  ,                                       !- Zone Return Air Node Name
  ,                                       !- Primary Daylighting Control Name
  ,                                       !- Fraction of Zone Controlled by Primary Daylighting Control
  ,                                       !- Secondary Daylighting Control Name
  ,                                       !- Fraction of Zone Controlled by Secondary Daylighting Control
  ,                                       !- Illuminance Map Name
  {e1c0b122-0c3c-427a-b552-8b4004b84d27}, !- Group Rendering Name
  {8e9673e2-8302-4f79-989d-48da9926e833}, !- Thermostat Name
  No;                                     !- Use Ideal Air Loads

OS:Node,
  {c2c38d61-c29f-47cf-b114-e19bb41e3a35}, !- Handle
  {078ce617-fba7-491c-840a-1484c11978f7}, !- Name
  {9164ee42-1aa2-4c3d-870b-86d879ec2db4}, !- Inlet Port
  ;                                       !- Outlet Port

OS:Connection,
  {9164ee42-1aa2-4c3d-870b-86d879ec2db4}, !- Handle
  {cbab1d92-3cb2-48e9-909c-62c389a4825c}, !- Name
  {334e885f-0516-444e-85f9-8d065172f1ed}, !- Source Object
  11,                                     !- Outlet Port
  {c2c38d61-c29f-47cf-b114-e19bb41e3a35}, !- Target Object
  2;                                      !- Inlet Port

OS:PortList,
  {10204fff-d1e7-45e6-8038-62589be3badb}, !- Handle
  {c2a9ee61-ca12-4b52-889c-eb7762a05aaf}, !- Name
  {334e885f-0516-444e-85f9-8d065172f1ed}; !- HVAC Component

OS:PortList,
  {27f89bbe-7f24-4100-adb6-ab2a05ce7b20}, !- Handle
  {d7952368-9430-4ffe-ab59-ddceb12af97c}, !- Name
  {334e885f-0516-444e-85f9-8d065172f1ed}; !- HVAC Component

OS:Sizing:Zone,
  {fc624b4b-2f65-4df7-bd2e-f698a113c1f1}, !- Handle
  {334e885f-0516-444e-85f9-8d065172f1ed}, !- Zone or ZoneList Name
  14,                                     !- Zone Cooling Design Supply Air Temperature {C}
  40,                                     !- Zone Heating Design Supply Air Temperature {C}
  0.0085,                                 !- Zone Cooling Design Supply Air Humidity Ratio {kg-H2O/kg-air}
  0.008,                                  !- Zone Heating Design Supply Air Humidity Ratio {kg-H2O/kg-air}
  ,                                       !- Zone Heating Sizing Factor
  ,                                       !- Zone Cooling Sizing Factor
  DesignDay,                              !- Cooling Design Air Flow Method
  ,                                       !- Cooling Design Air Flow Rate {m3/s}
  ,                                       !- Cooling Minimum Air Flow per Zone Floor Area {m3/s-m2}
  ,                                       !- Cooling Minimum Air Flow {m3/s}
  ,                                       !- Cooling Minimum Air Flow Fraction
  DesignDay,                              !- Heating Design Air Flow Method
  ,                                       !- Heating Design Air Flow Rate {m3/s}
  ,                                       !- Heating Maximum Air Flow per Zone Floor Area {m3/s-m2}
  ,                                       !- Heating Maximum Air Flow {m3/s}
  ,                                       !- Heating Maximum Air Flow Fraction
  ,                                       !- Design Zone Air Distribution Effectiveness in Cooling Mode
  ;                                       !- Design Zone Air Distribution Effectiveness in Heating Mode

OS:ZoneHVAC:EquipmentList,
  {eb2ee669-8d6d-4e12-9c1c-3d973ac6f4db}, !- Handle
  {cd061adf-1c42-4d44-9ef4-28d3f7d53c1d}, !- Name
  {334e885f-0516-444e-85f9-8d065172f1ed}; !- Thermal Zone

OS:Space,
  {037e50ef-a53a-437b-910b-4caca185eb35}, !- Handle
  G Corridor,                             !- Name
  {a8a8ba9e-e5da-48fa-a208-a5ca0e4449f1}, !- Space Type Name
  ,                                       !- Default Construction Set Name
  ,                                       !- Default Schedule Set Name
  0,                                      !- Direction of Relative North {deg}
  0,                                      !- X Origin {m}
  7.6196,                                 !- Y Origin {m}
  0,                                      !- Z Origin {m}
  {20c8bafe-028b-43d1-986b-d24988bad47b}, !- Building Story Name
  {334e885f-0516-444e-85f9-8d065172f1ed}, !- Thermal Zone Name
  Yes,                                    !- Part of Total Floor Area
  ;                                       !- Design Specification Outdoor Air Object Name

OS:ThermostatSetpoint:DualSetpoint,
  {8e9673e2-8302-4f79-989d-48da9926e833}, !- Handle
  {ee0376c4-c5db-4339-bf20-83e5807824de}, !- Name
  {20b1669a-5f1e-4638-90d7-b21259e11c28}, !- Heating Setpoint Temperature Schedule Name
  {9d6bb7ad-81af-44b7-8e8d-4d8731393f47}; !- Cooling Setpoint Temperature Schedule Name

OS:Schedule:Compact,
  {20b1669a-5f1e-4638-90d7-b21259e11c28}, !- Handle
  UnitHeater_HtgSP_Sch,                   !- Name
  {541203e9-fc77-4f94-9c91-4727916ea730}, !- Schedule Type Limits Name
  THROUGH: 12/31,                         !- Field 1
  FOR:AllDays,                            !- Field 2
  UNTIL: 24:00,                           !- Field 3
  15.6;                                   !- Field 4

OS:Schedule:Compact,
  {9d6bb7ad-81af-44b7-8e8d-4d8731393f47}, !- Handle
  UnitHeater_ClgSP_Sch,                   !- Name
  {541203e9-fc77-4f94-9c91-4727916ea730}, !- Schedule Type Limits Name
  THROUGH: 12/31,                         !- Field 1
  FOR:AllDays,                            !- Field 2
  UNTIL: 24:00,                           !- Field 3
  40;                                     !- Field 4

OS:Meter,
  {3be3ca86-21db-4ef0-8947-6b1366c647d5}, !- Handle
  ExteriorLights:Electricity,             !- Name
  hourly,                                 !- Reporting Frequency
  False,                                  !- Meter File Only
  False;                                  !- Cumulative

OS:ElectricEquipment:Definition,
  {63182ef9-4dc8-41d1-bd86-abcfec5c0b51}, !- Handle
  M N1 Apartment_PlugMisc_Equip Definition, !- Name
  Watts/Area,                             !- Design Level Calculation Method
  ,                                       !- Design Level {W}
  5.38,                                   !- Watts per Space Floor Area {W/m2}
  ,                                       !- Watts per Person {W/person}
  0,                                      !- Fraction Latent
  0.5,                                    !- Fraction Radiant
  0;                                      !- Fraction Lost

OS:ElectricEquipment,
  {7af9e16a-594f-410d-a549-fb1a5e3180bd}, !- Handle
  M N1 Apartment_PlugMisc_Equip,          !- Name
  {63182ef9-4dc8-41d1-bd86-abcfec5c0b51}, !- Electric Equipment Definition Name
  {9e256b47-29c6-4dc9-9c1d-cf9a1d361246}, !- Space or SpaceType Name
  {38731294-1aa7-447f-a218-4e962ed2d700}, !- Schedule Name
  ,                                       !- Multiplier
  General;                                !- End-Use Subcategory

OS:ThermalZone,
  {7aacf37b-3e45-4008-a759-f2c4c53eb659}, !- Handle
  M N1 Apartment Thermal Zone,            !- Name
  2,                                      !- Multiplier
  ,                                       !- Ceiling Height {m}
  ,                                       !- Volume {m3}
  ,                                       !- Floor Area {m2}
  ,                                       !- Zone Inside Convection Algorithm
  ,                                       !- Zone Outside Convection Algorithm
  ,                                       !- Zone Conditioning Equipment List Name
  {94338994-7eef-4bcb-8fe7-65e12d7f1e86}, !- Zone Air Inlet Port List
  {1f14135c-26aa-4a7e-860e-209cf191eb1d}, !- Zone Air Exhaust Port List
  {7aa3ceb7-f005-403d-9f7c-c53b8ad62741}, !- Zone Air Node Name
  ,                                       !- Zone Return Air Node Name
  ,                                       !- Primary Daylighting Control Name
  ,                                       !- Fraction of Zone Controlled by Primary Daylighting Control
  ,                                       !- Secondary Daylighting Control Name
  ,                                       !- Fraction of Zone Controlled by Secondary Daylighting Control
  ,                                       !- Illuminance Map Name
  {9b629f85-4e83-4c3c-bb59-d75f6a9596d3}, !- Group Rendering Name
  {6a47f131-5bb6-411d-bed1-c3dc96670ac8}, !- Thermostat Name
  No;                                     !- Use Ideal Air Loads

OS:Node,
  {4dcaf3ce-3b6f-4abd-9e03-cdc96973fb8e}, !- Handle
  {403c337c-2776-43eb-9451-e6359d14c028}, !- Name
  {7aa3ceb7-f005-403d-9f7c-c53b8ad62741}, !- Inlet Port
  ;                                       !- Outlet Port

OS:Connection,
  {7aa3ceb7-f005-403d-9f7c-c53b8ad62741}, !- Handle
  {9bce5d78-91a3-43df-8ca8-5fa55e24b387}, !- Name
  {7aacf37b-3e45-4008-a759-f2c4c53eb659}, !- Source Object
  11,                                     !- Outlet Port
  {4dcaf3ce-3b6f-4abd-9e03-cdc96973fb8e}, !- Target Object
  2;                                      !- Inlet Port

OS:PortList,
  {94338994-7eef-4bcb-8fe7-65e12d7f1e86}, !- Handle
  {4ebb1f9b-8c6a-417d-a049-2df7839dbfe9}, !- Name
  {7aacf37b-3e45-4008-a759-f2c4c53eb659}; !- HVAC Component

OS:PortList,
  {1f14135c-26aa-4a7e-860e-209cf191eb1d}, !- Handle
  {fb33a23d-216a-4a60-9dd1-5085af46009f}, !- Name
  {7aacf37b-3e45-4008-a759-f2c4c53eb659}; !- HVAC Component

OS:Sizing:Zone,
  {70daef50-f6fd-437b-b276-c4d37d6d5510}, !- Handle
  {7aacf37b-3e45-4008-a759-f2c4c53eb659}, !- Zone or ZoneList Name
  14,                                     !- Zone Cooling Design Supply Air Temperature {C}
  40,                                     !- Zone Heating Design Supply Air Temperature {C}
  0.0085,                                 !- Zone Cooling Design Supply Air Humidity Ratio {kg-H2O/kg-air}
  0.008,                                  !- Zone Heating Design Supply Air Humidity Ratio {kg-H2O/kg-air}
  ,                                       !- Zone Heating Sizing Factor
  ,                                       !- Zone Cooling Sizing Factor
  DesignDay,                              !- Cooling Design Air Flow Method
  ,                                       !- Cooling Design Air Flow Rate {m3/s}
  ,                                       !- Cooling Minimum Air Flow per Zone Floor Area {m3/s-m2}
  ,                                       !- Cooling Minimum Air Flow {m3/s}
  ,                                       !- Cooling Minimum Air Flow Fraction
  DesignDay,                              !- Heating Design Air Flow Method
  ,                                       !- Heating Design Air Flow Rate {m3/s}
  ,                                       !- Heating Maximum Air Flow per Zone Floor Area {m3/s-m2}
  ,                                       !- Heating Maximum Air Flow {m3/s}
  ,                                       !- Heating Maximum Air Flow Fraction
  ,                                       !- Design Zone Air Distribution Effectiveness in Cooling Mode
  ;                                       !- Design Zone Air Distribution Effectiveness in Heating Mode

OS:ZoneHVAC:EquipmentList,
  {3c427c4c-e7d4-4fe9-a77c-19a15d5f7cd2}, !- Handle
  {8f904c1e-8b2c-4b46-af0b-d58bea735610}, !- Name
  {7aacf37b-3e45-4008-a759-f2c4c53eb659}; !- Thermal Zone

OS:Space,
  {9e256b47-29c6-4dc9-9c1d-cf9a1d361246}, !- Handle
  M N1 Apartment,                         !- Name
  {7d81b0b2-7a71-4f92-9512-c66dc47e8822}, !- Space Type Name
  ,                                       !- Default Construction Set Name
  ,                                       !- Default Schedule Set Name
  0,                                      !- Direction of Relative North {deg}
  11.5818,                                !- X Origin {m}
  9.2959,                                 !- Y Origin {m}
  3.0478,                                 !- Z Origin {m}
  {b78267d8-dc43-4618-9867-febff16bb618}, !- Building Story Name
  {7aacf37b-3e45-4008-a759-f2c4c53eb659}, !- Thermal Zone Name
  Yes,                                    !- Part of Total Floor Area
  ;                                       !- Design Specification Outdoor Air Object Name

OS:ThermostatSetpoint:DualSetpoint,
  {6a47f131-5bb6-411d-bed1-c3dc96670ac8}, !- Handle
  {58b21f5d-23ba-44b1-88ee-eaa8879e168e}, !- Name
  {695f15fc-6f41-4227-af5a-ea34a61120c0}, !- Heating Setpoint Temperature Schedule Name
  {492115ec-b94a-4f72-8c59-c0dbae0304ef}; !- Cooling Setpoint Temperature Schedule Name

OS:Schedule:Compact,
  {38731294-1aa7-447f-a218-4e962ed2d700}, !- Handle
  APT_EQP_SCH,                            !- Name
  {e4a5868d-2e64-4e36-a4fa-e11f8629f7a8}, !- Schedule Type Limits Name
  Through: 12/31,                         !- Field 1
  For: AllDays,                           !- Field 2
  Until: 1:00,                            !- Field 3
  0.45,                                   !- Field 4
  Until: 2:00,                            !- Field 5
  0.41,                                   !- Field 6
  Until: 3:00,                            !- Field 7
  0.39,                                   !- Field 8
  Until: 5:00,                            !- Field 9
  0.38,                                   !- Field 10
  Until: 6:00,                            !- Field 11
  0.43,                                   !- Field 12
  Until: 7:00,                            !- Field 13
  0.54,                                   !- Field 14
  Until: 8:00,                            !- Field 15
  0.65,                                   !- Field 16
  Until: 9:00,                            !- Field 17
  0.66,                                   !- Field 18
  Until: 10:00,                           !- Field 19
  0.67,                                   !- Field 20
  Until: 11:00,                           !- Field 21
  0.69,                                   !- Field 22
  Until: 12:00,                           !- Field 23