
OS:Version,
  {3e00750d-1c38-4ea2-9ca9-3e545f940fca}, !- Handle
  1.3.0;                                  !- Version Identifier

OS:Site,
  {b08fdfc2-8a04-4039-a927-24e9db865595}, !- Handle
  USA CO-BOULDER,                         !- Name
  39.17,                                  !- Latitude {deg}
  -76.68,                                 !- Longitude {deg}
  -5,                                     !- Time Zone {hr}
  45,                                     !- Elevation {m}
  City;                                   !- Terrain

OS:SimulationControl,
  {0e3910b4-0ce2-4ac4-8bbb-7b6e7cd81dcb}, !- Handle
  Yes,                                    !- Do Zone Sizing Calculation
  Yes,                                    !- Do System Sizing Calculation
  Yes,                                    !- Do Plant Sizing Calculation
  No,                                     !- Run Simulation for Sizing Periods
  Yes,                                    !- Run Simulation for Weather File Run Periods
  0.04,                                   !- Loads Convergence Tolerance Value
  0.2,                                    !- Temperature Convergence Tolerance Value {deltaC}
  FullInteriorAndExterior,                !- Solar Distribution
  25,                                     !- Maximum Number of Warmup Days
  6;                                      !- Minimum Number of Warmup Days

OS:Surface,
  {f535a944-43d9-4396-a3ed-da8ee9dba373}, !- Handle
  Office_Wall_West,                       !- Name
  Wall,                                   !- Surface Type
  ,                                       !- Construction Name
  {6471882f-620d-4fee-851f-c8cc96c3b6f7}, !- Space Name
  Surface,                                !- Outside Boundary Condition
  {3336e16c-8924-4ea1-89ec-0d11da848b61}, !- Outside Boundary Condition Object
  NoSun,                                  !- Sun Exposure
  NoWind,                                 !- Wind Exposure
  ,                                       !- View Factor to Ground
  ,                                       !- Number of Vertices
  26.8875, 22.5515, 6.096,                !- X,Y,Z Vertex 1 {m}
  26.8875, 22.5515, 0,                    !- X,Y,Z Vertex 2 {m}
  26.8875, 13.5765, 0,                    !- X,Y,Z Vertex 3 {m}
  26.8875, 13.5765, 6.096;                !- X,Y,Z Vertex 4 {m}

OS:ThermalZone,
  {a9eacfea-8b65-446a-842b-fee36008c4ca}, !- Handle
  Office Thermal Zone,                    !- Name
  1,                                      !- Multiplier
  ,                                       !- Ceiling Height {m}
  ,                                       !- Volume {m3}
  ,                                       !- Floor Area {m2}
  ,                                       !- Zone Inside Convection Algorithm
  ,                                       !- Zone Outside Convection Algorithm
  ,                                       !- Zone Conditioning Equipment List Name
  {c7397d88-97ce-47dd-a174-9c482d33b058}, !- Zone Air Inlet Port List
  {f35d240d-631d-4738-8ec3-f16776971639}, !- Zone Air Exhaust Port List
  {cf3edd99-9314-46a7-bb8f-918074ab9f9e}, !- Zone Air Node Name
  {f1b6345c-18aa-4bf4-89fb-47ca57c3893a}, !- Zone Return Air Node Name
  ,                                       !- Primary Daylighting Control Name
  ,                                       !- Fraction of Zone Controlled by Primary Daylighting Control
  ,                                       !- Secondary Daylighting Control Name
  ,                                       !- Fraction of Zone Controlled by Secondary Daylighting Control
  ,                                       !- Illuminance Map Name
  {279fc5f7-ed6f-4d3e-ae6c-58f5c1540afe}, !- Group Rendering Name
  {746fc42b-0e27-42be-8f1e-a83c7b737381}, !- Thermostat Name
  No;                                     !- Use Ideal Air Loads

OS:Node,
  {e9f5865f-590c-4d91-b38e-2261aaacd3ae}, !- Handle
  {9d9a17fe-ce83-4ad9-b5f7-fb1e4c426f93}, !- Name
  {cf3edd99-9314-46a7-bb8f-918074ab9f9e}, !- Inlet Port
  ;                                       !- Outlet Port

OS:Connection,
  {cf3edd99-9314-46a7-bb8f-918074ab9f9e}, !- Handle
  {9ae824a8-a567-47a6-8c84-99e5ba624ae1}, !- Name
  {a9eacfea-8b65-446a-842b-fee36008c4ca}, !- Source Object
  11,                                     !- Outlet Port
  {e9f5865f-590c-4d91-b38e-2261aaacd3ae}, !- Target Object
  2;                                      !- Inlet Port

OS:PortList,
  {c7397d88-97ce-47dd-a174-9c482d33b058}, !- Handle
  {6e3ba368-2fed-4bf5-b679-c2a8a8d8744d}, !- Name
  {a9eacfea-8b65-446a-842b-fee36008c4ca}, !- HVAC Component
  {c4b40b4d-667b-48a9-8e43-13c4da4c8895}; !- Port 1

OS:PortList,
  {f35d240d-631d-4738-8ec3-f16776971639}, !- Handle
  {1425b863-acd5-4a1f-a8c7-eeada12837aa}, !- Name
  {a9eacfea-8b65-446a-842b-fee36008c4ca}; !- HVAC Component

OS:Sizing:Zone,
  {c1f0a40a-0542-43e7-9e91-6b52fac85c63}, !- Handle
  {a9eacfea-8b65-446a-842b-fee36008c4ca}, !- Zone or ZoneList Name
  14,                                     !- Zone Cooling Design Supply Air Temperature {C}
  40,                                     !- Zone Heating Design Supply Air Temperature {C}
  0.0085,                                 !- Zone Cooling Design Supply Air Humidity Ratio {kg-H2O/kg-air}
  0.008,                                  !- Zone Heating Design Supply Air Humidity Ratio {kg-H2O/kg-air}
  ,                                       !- Zone Heating Sizing Factor
  ,                                       !- Zone Cooling Sizing Factor
  ,                                       !- Cooling Design Air Flow Method
  ,                                       !- Cooling Design Air Flow Rate {m3/s}
  ,                                       !- Cooling Minimum Air Flow per Zone Floor Area {m3/s-m2}
  ,                                       !- Cooling Minimum Air Flow {m3/s}
  ,                                       !- Cooling Minimum Air Flow Fraction
  DesignDay,                              !- Heating Design Air Flow Method
  ,                                       !- Heating Design Air Flow Rate {m3/s}
  ,                                       !- Heating Maximum Air Flow per Zone Floor Area {m3/s-m2}
  ,                                       !- Heating Maximum Air Flow {m3/s}
  ,                                       !- Heating Maximum Air Flow Fraction
  ,                                       !- Design Zone Air Distribution Effectiveness in Cooling Mode
  ;                                       !- Design Zone Air Distribution Effectiveness in Heating Mode

OS:ZoneHVAC:EquipmentList,
  {8e91f743-b538-4ad3-ac9c-66dc23875184}, !- Handle
  {912b7c94-a785-413f-bc68-543848496e96}, !- Name
  {a9eacfea-8b65-446a-842b-fee36008c4ca}, !- Thermal Zone
  {ea55662e-2492-438f-8a0b-f41b81622403}, !- Zone Equipment 1
  1,                                      !- Zone Equipment Cooling Sequence 1
  1;                                      !- Zone Equipment Heating or No-Load Sequence 1

OS:Space,
  {6471882f-620d-4fee-851f-c8cc96c3b6f7}, !- Handle
  Office,                                 !- Name
  {077cf5dd-ddc6-4597-b4d3-2be0c39f9846}, !- Space Type Name
  ,                                       !- Default Construction Set Name
  ,                                       !- Default Schedule Set Name
  0,                                      !- Direction of Relative North {deg}
  0,                                      !- X Origin {m}
  0,                                      !- Y Origin {m}
  0,                                      !- Z Origin {m}
  {05cda0a8-dbb4-4df2-8313-df9da9edf9d7}, !- Building Story Name
  {a9eacfea-8b65-446a-842b-fee36008c4ca}, !- Thermal Zone Name
  Yes,                                    !- Part of Total Floor Area
  ;                                       !- Design Specification Outdoor Air Object Name

OS:ThermostatSetpoint:DualSetpoint,
  {746fc42b-0e27-42be-8f1e-a83c7b737381}, !- Handle
  {94a444a4-b7c4-4c9c-82ab-6d2d942ffcaa}, !- Name
  {b77f820b-7926-4d4f-ab05-943d99fd2d2c}, !- Heating Setpoint Temperature Schedule Name
  {80fcb668-a53c-425f-a95b-627cc3916132}; !- Cooling Setpoint Temperature Schedule Name

OS:Schedule:Compact,
  {b77f820b-7926-4d4f-ab05-943d99fd2d2c}, !- Handle
  HTGSETP_SCH,                            !- Name
  {266fcd9e-e927-4c75-a208-95c86142c18d}, !- Schedule Type Limits Name
  Through: 12/31,                         !- Field 1
  For SummerDesignDay,                    !- Field 2
  Until: 24:00,                           !- Field 3
  15.6,                                   !- Field 4
  For: AllOtherDays,                      !- Field 5
  Until:  6:00,                           !- Field 6
  15.6,                                   !- Field 7
  Until: 22:00,                           !- Field 8
  21.,                                    !- Field 9
  Until: 24:00,                           !- Field 10
  15.6;                                   !- Field 11

OS:ScheduleTypeLimits,
  {266fcd9e-e927-4c75-a208-95c86142c18d}, !- Handle
  Temperature,                            !- Name
  -60,                                    !- Lower Limit Value {BasedOnField A4}
  200,                                    !- Upper Limit Value {BasedOnField A4}
  CONTINUOUS,                             !- Numeric Type
  Temperature;                            !- Unit Type

OS:Schedule:Compact,
  {80fcb668-a53c-425f-a95b-627cc3916132}, !- Handle
  CLGSETP_SCH,                            !- Name
  {266fcd9e-e927-4c75-a208-95c86142c18d}, !- Schedule Type Limits Name
  Through: 12/31,                         !- Field 1
  For WinterDesignDay,                    !- Field 2
  Until: 24:00,                           !- Field 3
  30.0,                                   !- Field 4
  For: AllOtherDays,                      !- Field 5
  Until: 6:00,                            !- Field 6
  30.0,                                   !- Field 7
  Until: 22:00,                           !- Field 8
  24.0,                                   !- Field 9
  Until: 24:00,                           !- Field 10
  30.0;                                   !- Field 11

OS:People:Definition,
  {ab7f1b28-cb4b-4aad-a02c-04ef52e1f6a4}, !- Handle
  DryStorage People Definition,           !- Name
  Area/Person,                            !- Number of People Calculation Method
  ,                                       !- Number of People {people}
  ,                                       !- People per Space Floor Area {person/m2}
  27.87,                                  !- Space Floor Area per Person {m2/person}
  0.3,                                    !- Fraction Radiant
  ,                                       !- Sensible Heat Fraction
  ,                                       !- Carbon Dioxide Generation Rate {m3/s-W}
  No,                                     !- Enable ASHRAE 55 Comfort Warnings
  ZoneAveraged,                           !- Mean Radiant Temperature Calculation Type
  FANGER;                                 !- Thermal Comfort Model Type 1

OS:ThermalZone,
  {50afb57e-7893-48fa-9f18-51a8258024d6}, !- Handle
  DryStorage Thermal Zone,                !- Name
  1,                                      !- Multiplier
  ,                                       !- Ceiling Height {m}
  ,                                       !- Volume {m3}
  ,                                       !- Floor Area {m2}
  ,                                       !- Zone Inside Convection Algorithm
  ,                                       !- Zone Outside Convection Algorithm
  ,                                       !- Zone Conditioning Equipment List Name
  {7bce9a75-d753-4f80-9885-eadd3c73a7d4}, !- Zone Air Inlet Port List
  {abccf45a-5464-45cc-aab4-b64d8993bb03}, !- Zone Air Exhaust Port List
  {bc60f9e8-590e-465f-aa12-fb5e457c2075}, !- Zone Air Node Name
  {e8c0d209-b1fa-4bd8-a74c-773d758cfbc8}, !- Zone Return Air Node Name
  ,                                       !- Primary Daylighting Control Name
  ,                                       !- Fraction of Zone Controlled by Primary Daylighting Control
  ,                                       !- Secondary Daylighting Control Name
  ,                                       !- Fraction of Zone Controlled by Secondary Daylighting Control
  ,                                       !- Illuminance Map Name
  {325b7d80-38d2-4ed5-8754-51aa4c5d7bb0}, !- Group Rendering Name
  {c3908770-2e4b-4cac-8a42-69c822fa30ae}, !- Thermostat Name
  No;                                     !- Use Ideal Air Loads

OS:Node,
  {600c6793-7cb7-4acd-8e56-ca4e98871c15}, !- Handle
  {f8514225-4fdb-4f6a-8fc2-33e775d592ae}, !- Name
  {bc60f9e8-590e-465f-aa12-fb5e457c2075}, !- Inlet Port
  ;                                       !- Outlet Port

OS:Connection,
  {bc60f9e8-590e-465f-aa12-fb5e457c2075}, !- Handle
  {0b2fcf5f-eaa8-4a16-8c94-9f4982b1c756}, !- Name
  {50afb57e-7893-48fa-9f18-51a8258024d6}, !- Source Object
  11,                                     !- Outlet Port
  {600c6793-7cb7-4acd-8e56-ca4e98871c15}, !- Target Object
  2;                                      !- Inlet Port

OS:PortList,
  {7bce9a75-d753-4f80-9885-eadd3c73a7d4}, !- Handle
  {66057a96-8b05-486f-a2ec-ba347de1a7ad}, !- Name
  {50afb57e-7893-48fa-9f18-51a8258024d6}, !- HVAC Component
  {090d063b-8372-482f-ab15-d827c9054870}; !- Port 1

OS:PortList,
  {abccf45a-5464-45cc-aab4-b64d8993bb03}, !- Handle
  {8e39ec7f-a160-4ead-b0e0-0ff8966810d3}, !- Name
  {50afb57e-7893-48fa-9f18-51a8258024d6}; !- HVAC Component

OS:Sizing:Zone,
  {87ab79b2-04f2-48c9-95ca-7b7030207634}, !- Handle
  {50afb57e-7893-48fa-9f18-51a8258024d6}, !- Zone or ZoneList Name
  14,                                     !- Zone Cooling Design Supply Air Temperature {C}
  40,                                     !- Zone Heating Design Supply Air Temperature {C}
  0.0085,                                 !- Zone Cooling Design Supply Air Humidity Ratio {kg-H2O/kg-air}
  0.008,                                  !- Zone Heating Design Supply Air Humidity Ratio {kg-H2O/kg-air}
  ,                                       !- Zone Heating Sizing Factor
  ,                                       !- Zone Cooling Sizing Factor
  ,                                       !- Cooling Design Air Flow Method
  ,                                       !- Cooling Design Air Flow Rate {m3/s}
  ,                                       !- Cooling Minimum Air Flow per Zone Floor Area {m3/s-m2}
  ,                                       !- Cooling Minimum Air Flow {m3/s}
  ,                                       !- Cooling Minimum Air Flow Fraction
  DesignDay,                              !- Heating Design Air Flow Method
  ,                                       !- Heating Design Air Flow Rate {m3/s}
  ,                                       !- Heating Maximum Air Flow per Zone Floor Area {m3/s-m2}
  ,                                       !- Heating Maximum Air Flow {m3/s}
  ,                                       !- Heating Maximum Air Flow Fraction
  ,                                       !- Design Zone Air Distribution Effectiveness in Cooling Mode
  ;                                       !- Design Zone Air Distribution Effectiveness in Heating Mode

OS:ZoneHVAC:EquipmentList,
  {20a82c0e-98e9-4a5e-b224-ce0a4da55836}, !- Handle
  {c4dfc1b9-8bea-4cf1-b989-01383385d1d9}, !- Name
  {50afb57e-7893-48fa-9f18-51a8258024d6}, !- Thermal Zone
  {c078940f-f1bf-4130-b6ba-ebf8f832ab0b}, !- Zone Equipment 1
  1,                                      !- Zone Equipment Cooling Sequence 1
  1;                                      !- Zone Equipment Heating or No-Load Sequence 1

OS:Space,
  {faed1c8a-afbb-42c2-8bb0-d0507dbce0aa}, !- Handle
  DryStorage,                             !- Name
  {83a75566-d3c1-42ed-8621-92b72d0fbb7f}, !- Space Type Name
  ,                                       !- Default Construction Set Name
  ,                                       !- Default Schedule Set Name
  0,                                      !- Direction of Relative North {deg}
  0,                                      !- X Origin {m}
  0,                                      !- Y Origin {m}
  0,                                      !- Z Origin {m}
  {05cda0a8-dbb4-4df2-8313-df9da9edf9d7}, !- Building Story Name
  {50afb57e-7893-48fa-9f18-51a8258024d6}, !- Thermal Zone Name
  Yes,                                    !- Part of Total Floor Area
  ;                                       !- Design Specification Outdoor Air Object Name

OS:ThermostatSetpoint:DualSetpoint,
  {c3908770-2e4b-4cac-8a42-69c822fa30ae}, !- Handle
  {75f66a09-0c34-420f-8b9b-5d9ae8fc7929}, !- Name
  {b77f820b-7926-4d4f-ab05-943d99fd2d2c}, !- Heating Setpoint Temperature Schedule Name
  {80fcb668-a53c-425f-a95b-627cc3916132}; !- Cooling Setpoint Temperature Schedule Name

OS:Schedule:Compact,
  {b38e928b-ba26-45c7-8b01-d37a17a79527}, !- Handle
  BLDG_OCC_SCH,                           !- Name
  {c5b65e32-4568-4e9e-a3c6-2effd7711c95}, !- Schedule Type Limits Name
  Through: 12/31,                         !- Field 1
  For: Weekdays,                          !- Field 2
  Until: 06:00,                           !- Field 3
  0.0,                                    !- Field 4
  Until: 08:00,                           !- Field 5
  0.1,                                    !- Field 6
  Until: 09:00,                           !- Field 7
  0.2,                                    !- Field 8
  Until: 11:00,                           !- Field 9
  0.5,                                    !- Field 10
  Until: 15:00,                           !- Field 11
  0.7,                                    !- Field 12
  Until: 16:00,                           !- Field 13
  0.8,                                    !- Field 14
  Until: 17:00,                           !- Field 15
  0.7,                                    !- Field 16
  Until: 19:00,                           !- Field 17
  0.5,                                    !- Field 18
  Until: 22:00,                           !- Field 19
  0.3,                                    !- Field 20
  Until: 24:00,                           !- Field 21
  0.0,                                    !- Field 22
  For: SummerDesignDay,                   !- Field 23
  Until: 24:00,                           !- Field 24
  1.0,                                    !- Field 25
  For: Saturday,                          !- Field 26
  Until: 06:00,                           !- Field 27
  0.0,                                    !- Field 28
  Until: 08:00,                           !- Field 29
  0.1,                                    !- Field 30
  Until: 09:00,                           !- Field 31
  0.2,                                    !- Field 32
  Until: 10:00,                           !- Field 33
  0.5,                                    !- Field 34
  Until: 11:00,                           !- Field 35
  0.6,                                    !- Field 36
  Until: 17:00,                           !- Field 37
  0.8,                                    !- Field 38
  Until: 18:00,                           !- Field 39
  0.6,                                    !- Field 40
  Until: 21:00,                           !- Field 41
  0.2,                                    !- Field 42
  Until: 22:00,                           !- Field 43
  0.1,                                    !- Field 44
  Until: 24:00,                           !- Field 45
  0.0,                                    !- Field 46
  For: WinterDesignDay,                   !- Field 47
  Until: 24:00,                           !- Field 48
  0.0,                                    !- Field 49
  For: Sunday Holidays AllOtherDays,      !- Field 50
  Until: 06:00,                           !- Field 51
  0.0,                                    !- Field 52
  Until: 10:00,                           !- Field 53
  0.1,                                    !- Field 54
  Until: 12:00,                           !- Field 55
  0.2,                                    !- Field 56
  Until: 17:00,                           !- Field 57
  0.4,                                    !- Field 58
  Until: 18:00,                           !- Field 59
  0.2,                                    !- Field 60
  Until: 22:00,                           !- Field 61
  0.1,                                    !- Field 62
  Until: 24:00,                           !- Field 63
  0.0;                                    !- Field 64

OS:ScheduleTypeLimits,
  {c5b65e32-4568-4e9e-a3c6-2effd7711c95}, !- Handle
  Fraction,                               !- Name
  0,                                      !- Lower Limit Value {BasedOnField A4}
  1,                                      !- Upper Limit Value {BasedOnField A4}
  CONTINUOUS;                             !- Numeric Type

OS:Schedule:Compact,
  {2eba1c51-ddd7-4aac-b776-85c18703a0a7}, !- Handle
  ACTIVITY_SCH,                           !- Name
  {90c70990-4a3b-49e8-8bf6-7c1557f44e7f}, !- Schedule Type Limits Name
  Through: 12/31,                         !- Field 1
  For: AllDays,                           !- Field 2
  Until: 24:00,                           !- Field 3
  120.;                                   !- Field 4

OS:ScheduleTypeLimits,
  {935d3429-b7fa-42f2-8823-4346a928bad0}, !- Handle
  {8009a143-b5ec-4d52-8f29-e4df2d90793a}; !- Name

OS:ScheduleTypeLimits,
  {90c70990-4a3b-49e8-8bf6-7c1557f44e7f}, !- Handle
  ActivityLevel,                          !- Name
  0,                                      !- Lower Limit Value {BasedOnField A4}
  ,                                       !- Upper Limit Value {BasedOnField A4}
  Continuous,                             !- Numeric Type
  ActivityLevel;                          !- Unit Type

OS:Schedule:Compact,
  {d08e284b-afcc-4899-8e33-fb5296c3ace7}, !- Handle
  WORK_EFF_SCH,                           !- Name
  {c5b65e32-4568-4e9e-a3c6-2effd7711c95}, !- Schedule Type Limits Name
  Through: 12/31,                         !- Field 1
  For: AllDays,                           !- Field 2
  Until: 24:00,                           !- Field 3
  0.0;                                    !- Field 4

OS:Schedule:Compact,
  {ff730cf3-a521-4bd7-bc24-048c7cd13246}, !- Handle
  CLOTHING_SCH,                           !- Name
  {f9d81e19-b658-4c94-ad32-88bcd0ef471f}, !- Schedule Type Limits Name
  Through: 04/30,                         !- Field 1
  For: AllDays,                           !- Field 2
  Until: 24:00,                           !- Field 3
  1.0,                                    !- Field 4
  Through: 09/30,                         !- Field 5
  For: AllDays,                           !- Field 6
  Until: 24:00,                           !- Field 7
  0.5,                                    !- Field 8
  Through: 12/31,                         !- Field 9
  For: AllDays,                           !- Field 10
  Until: 24:00,                           !- Field 11
  1.0;                                    !- Field 12

OS:ScheduleTypeLimits,
  {52963ca2-02a5-47cd-a6a3-09dbefa2bbc1}, !- Handle
  {02c8ece2-a7fc-4663-bfd7-24d95864a650}; !- Name

OS:ScheduleTypeLimits,
  {f9d81e19-b658-4c94-ad32-88bcd0ef471f}, !- Handle
  ClothingInsulation,                     !- Name
  0,                                      !- Lower Limit Value {BasedOnField A4}
  ,                                       !- Upper Limit Value {BasedOnField A4}
  Continuous,                             !- Numeric Type
  ClothingInsulation;                     !- Unit Type

OS:Schedule:Compact,
  {c6ccd359-783b-44b7-82d9-2eabe4f64a42}, !- Handle
  AIR_VELO_SCH,                           !- Name
  {5fec3213-fc3b-4103-984c-318e4bde30f0}, !- Schedule Type Limits Name
  Through: 12/31,                         !- Field 1
  For: AllDays,                           !- Field 2
  Until: 24:00,                           !- Field 3
  0.2;                                    !- Field 4

OS:ScheduleTypeLimits,
  {063b117c-5b4d-48b7-a7ab-39ecc4aa42d1}, !- Handle
  {e211fba4-a7d3-408b-8aef-b4617311748b}; !- Name

OS:ScheduleTypeLimits,
  {5fec3213-fc3b-4103-984c-318e4bde30f0}, !- Handle
  Velocity,                               !- Name
  0,                                      !- Lower Limit Value {BasedOnField A4}
  ,                                       !- Upper Limit Value {BasedOnField A4}
  Continuous,                             !- Numeric Type
  Velocity;                               !- Unit Type

OS:Schedule:Compact,
  {19a450d8-3547-44a1-9b23-6a597cf82d88}, !- Handle
  MinOA_Sched,                            !- Name
  {c5b65e32-4568-4e9e-a3c6-2effd7711c95}, !- Schedule Type Limits Name
  Through: 12/31,                         !- Field 1
  For: AllDays,                           !- Field 2
  Until: 06:00,                           !- Field 3
  0.0,                                    !- Field 4
  Until: 22:00,                           !- Field 5
  1.0,                                    !- Field 6
  Until: 24:00,                           !- Field 7
  0.0;                                    !- Field 8

OS:Surface,
  {8882592d-2adc-4bce-9cba-e2a1b25cf678}, !- Handle
  Office_Wall_South-PPAutoCreateOther,    !- Name
  Wall,                                   !- Surface Type
  ,                                       !- Construction Name
  {4a4437ac-911a-48cc-841c-315adce727a7}, !- Space Name
  Surface,                                !- Outside Boundary Condition
  {d39c1b12-f779-4da4-9581-bb62e0aa556a}, !- Outside Boundary Condition Object
  NoSun,                                  !- Sun Exposure
  NoWind,                                 !- Wind Exposure
  ,                                       !- View Factor to Ground
  ,                                       !- Number of Vertices
  36.7863, 13.5765, 6.096,                !- X,Y,Z Vertex 1 {m}
  36.7863, 13.5765, 0,                    !- X,Y,Z Vertex 2 {m}
  26.8875, 13.5765, 0,                    !- X,Y,Z Vertex 3 {m}
  26.8875, 13.5765, 6.096;                !- X,Y,Z Vertex 4 {m}

OS:ThermalZone,
  {5b3169e0-4aa6-4a37-adb9-851ec51e6540}, !- Handle
  Deli Thermal Zone,                      !- Name
  1,                                      !- Multiplier
  ,                                       !- Ceiling Height {m}
  ,                                       !- Volume {m3}
  ,                                       !- Floor Area {m2}
  ,                                       !- Zone Inside Convection Algorithm
  ,                                       !- Zone Outside Convection Algorithm
  ,                                       !- Zone Conditioning Equipment List Name
  {5d76d7fc-2b28-47e5-b5c5-b58a586b1331}, !- Zone Air Inlet Port List
  {e1d22b48-b970-405f-aeef-6b3c1b6fb7d5}, !- Zone Air Exhaust Port List
  {eec1147f-3179-4f55-80be-c05083c65d2c}, !- Zone Air Node Name
  {aa0cb587-e624-474b-9842-1cb2db9e22b6}, !- Zone Return Air Node Name
  ,                                       !- Primary Daylighting Control Name
  ,                                       !- Fraction of Zone Controlled by Primary Daylighting Control
  ,                                       !- Secondary Daylighting Control Name
  ,                                       !- Fraction of Zone Controlled by Secondary Daylighting Control
  ,                                       !- Illuminance Map Name
  {473d7135-669b-4935-8ae9-d94fea88aaef}, !- Group Rendering Name
  {204b5f51-6392-4c65-b5d4-e7fd4a66a16b}, !- Thermostat Name
  No;                                     !- Use Ideal Air Loads

OS:Node,
  {8616b1ee-cc72-49d7-b33b-c709529b7cdb}, !- Handle
  {f579db71-d7f6-4fc5-ba8e-c8c0f93abad3}, !- Name
  {eec1147f-3179-4f55-80be-c05083c65d2c}, !- Inlet Port
  ;                                       !- Outlet Port

OS:Connection,
  {eec1147f-3179-4f55-80be-c05083c65d2c}, !- Handle
  {15b5de5e-b9e1-4fe5-b5c8-6533571f4962}, !- Name
  {5b3169e0-4aa6-4a37-adb9-851ec51e6540}, !- Source Object
  11,                                     !- Outlet Port
  {8616b1ee-cc72-49d7-b33b-c709529b7cdb}, !- Target Object
  2;                                      !- Inlet Port

OS:PortList,
  {5d76d7fc-2b28-47e5-b5c5-b58a586b1331}, !- Handle
  {27405f6a-283b-4550-ad4c-7b58efe9010d}, !- Name
  {5b3169e0-4aa6-4a37-adb9-851ec51e6540}, !- HVAC Component
  {a6028bed-f5ad-4c8c-a51a-7369528abc09}; !- Port 1

OS:PortList,
  {e1d22b48-b970-405f-aeef-6b3c1b6fb7d5}, !- Handle
  {770812c1-4b98-4caa-8a08-7adfabe20904}, !- Name
  {5b3169e0-4aa6-4a37-adb9-851ec51e6540}, !- HVAC Component
  {f873e1d8-cb7c-459f-9408-ae8bd7c2cfd0}; !- Port 1

OS:Sizing:Zone,
  {6127c130-cbde-44c9-b121-5eb1dc12d3a0}, !- Handle
  {5b3169e0-4aa6-4a37-adb9-851ec51e6540}, !- Zone or ZoneList Name
  14,                                     !- Zone Cooling Design Supply Air Temperature {C}
  40,                                     !- Zone Heating Design Supply Air Temperature {C}
  0.0085,                                 !- Zone Cooling Design Supply Air Humidity Ratio {kg-H2O/kg-air}
  0.008,                                  !- Zone Heating Design Supply Air Humidity Ratio {kg-H2O/kg-air}
  ,                                       !- Zone Heating Sizing Factor
  ,                                       !- Zone Cooling Sizing Factor
  ,                                       !- Cooling Design Air Flow Method
  ,                                       !- Cooling Design Air Flow Rate {m3/s}
  ,                                       !- Cooling Minimum Air Flow per Zone Floor Area {m3/s-m2}
  ,                                       !- Cooling Minimum Air Flow {m3/s}
  ,                                       !- Cooling Minimum Air Flow Fraction
  DesignDay,                              !- Heating Design Air Flow Method
  ,                                       !- Heating Design Air Flow Rate {m3/s}
  ,                                       !- Heating Maximum Air Flow per Zone Floor Area {m3/s-m2}
  ,                                       !- Heating Maximum Air Flow {m3/s}
  ,                                       !- Heating Maximum Air Flow Fraction