
OS:Version,
  {607a14bd-8c75-4e6f-80ef-ab0fdfc1beba}, !- Handle
  1.2.0;                                  !- Version Identifier

OS:ScheduleTypeLimits,
  {e0f1651e-8c7e-4ac9-9505-8a3d616989c7}, !- Handle
  Lights Schedule Type Limits,            !- Name
  0,                                      !- Lower Limit Value {BasedOnField A4}
  1,                                      !- Upper Limit Value {BasedOnField A4}
  Continuous,                             !- Numeric Type
  Dimensionless;                          !- Unit Type

OS:ScheduleTypeLimits,
  {fddc592f-1742-4f2a-b26f-17f0a5e2fd9e}, !- Handle
  Occupancy Schedule Type Limits,         !- Name
  0,                                      !- Lower Limit Value {BasedOnField A4}
  1,                                      !- Upper Limit Value {BasedOnField A4}
  Continuous,                             !- Numeric Type
  Dimensionless;                          !- Unit Type

OS:ScheduleTypeLimits,
  {6242e2f6-4d4d-4b16-9843-f33c272445c9}, !- Handle
  Equipment Schedule Type Limits,         !- Name
  0,                                      !- Lower Limit Value {BasedOnField A4}
  1,                                      !- Upper Limit Value {BasedOnField A4}
  Continuous,                             !- Numeric Type
  Dimensionless;                          !- Unit Type

OS:ScheduleTypeLimits,
  {39a5a27c-4875-4bcf-8b7d-4cbd95d51067}, !- Handle
  Water Use Schedule Type Limits,         !- Name
  0,                                      !- Lower Limit Value {BasedOnField A4}
  1,                                      !- Upper Limit Value {BasedOnField A4}
  Continuous,                             !- Numeric Type
  Dimensionless;                          !- Unit Type

OS:ScheduleTypeLimits,
  {1d338231-9c16-47c6-99a3-9dac8dceeaf9}, !- Handle
  Elevators Schedule Type Limits,         !- Name
  0,                                      !- Lower Limit Value {BasedOnField A4}
  1,                                      !- Upper Limit Value {BasedOnField A4}
  Continuous,                             !- Numeric Type
  Dimensionless;                          !- Unit Type

OS:ScheduleTypeLimits,
  {f7cf8add-9a26-4dec-b793-093b4bb088a3}, !- Handle
  Process Loads Schedule Type Limits,     !- Name
  0,                                      !- Lower Limit Value {BasedOnField A4}
  1,                                      !- Upper Limit Value {BasedOnField A4}
  Continuous,                             !- Numeric Type
  Dimensionless;                          !- Unit Type

OS:ScheduleTypeLimits,
  {cf1aa117-a4f4-49ba-b612-647db1a2598d}, !- Handle
  Thermostat Heating Setpoint Schedule Type Limits, !- Name
  0,                                      !- Lower Limit Value {BasedOnField A4}
  100,                                    !- Upper Limit Value {BasedOnField A4}
  Continuous,                             !- Numeric Type
  Temperature;                            !- Unit Type

OS:ScheduleTypeLimits,
  {41db0394-366e-4758-9c6d-7ab988936dd8}, !- Handle
  Thermostat Cooling Setpoint Schedule Type Limits, !- Name
  0,                                      !- Lower Limit Value {BasedOnField A4}
  100,                                    !- Upper Limit Value {BasedOnField A4}
  Continuous,                             !- Numeric Type
  Temperature;                            !- Unit Type

OS:ScheduleTypeLimits,
  {84125eeb-7d87-42cf-a147-a73fd50f1dce}, !- Handle
  HVAC Operation Schedule Type Limits,    !- Name
  0,                                      !- Lower Limit Value {BasedOnField A4}
  1,                                      !- Upper Limit Value {BasedOnField A4}
  Discrete,                               !- Numeric Type
  Availability;                           !- Unit Type

OS:Material:AirWall,
  {7cb8fd2c-2b01-482d-84e1-925f67e97ccb}, !- Handle
  {d099b8dd-c965-447d-865d-d4366a74aaf9}; !- Name

OS:Construction,
  {56fc76dc-9219-40e4-892c-e58c1cea1d38}, !- Handle
  {fed9abec-8154-4192-b00d-1b8a0a19a8c0}, !- Name
  {7ef4f3e7-9efe-4624-9561-6f2e3ce7ded3}, !- Surface Rendering Name
  {7cb8fd2c-2b01-482d-84e1-925f67e97ccb}; !- Layer 1

OS:Construction,
  {495241f8-c6ff-4b1d-a047-f463dfc999d6}, !- Handle
  Slab on grade,                          !- Name
  {43bc7867-43da-4d50-99fd-ba6401dca95f}, !- Surface Rendering Name
  {3f8cd018-4f13-4a6d-ba97-7ea21fe75fc9}; !- Layer 1

OS:Material,
  {3f8cd018-4f13-4a6d-ba97-7ea21fe75fc9}, !- Handle
  Heavyweight Concrete - 8 in. - 140 lb/ft3, ! Name
  MediumRough,                            ! Roughness
  0.2032,                                 ! Thickness {m}
  1.95,                                   ! Conductivity {W/m-K}
  2242.58487235442,                       ! Density {kg/m3}
  900;                                    ! Specific Heat {J/kg-K}

OS:ComponentData,
  {7eeabd55-d051-4edc-90b9-c62e7b7657fd}, !- Handle
  OS:ComponentData 1,                     !- Name
  {3fcc465d-ebbc-45e6-8a58-3ecfc08f6990}, !- UUID
  {54c81117-769d-40f8-add8-f63aaa75e2b1}, !- Version UUID
  ,                                       !- Creation Timestamp
  ,                                       !- Version Timestamp
  {3f8cd018-4f13-4a6d-ba97-7ea21fe75fc9}; !- Name of Object 1

OS:Construction,
  {34eeb6b0-454f-4720-9a9a-eaead83bbe25}, !- Handle
  Int wall,                               !- Name
  {e9117eec-a989-4770-bd34-35c11aa4d6b9}, !- Surface Rendering Name
  {e1c93523-d913-489b-9ed2-049004bf827c}, !- Layer 1
  {1a2e2c3f-3ccb-46cc-ab29-739c7c6a5d6e}, !- Layer 2
  {1a2e2c3f-3ccb-46cc-ab29-739c7c6a5d6e}; !- Layer 3

OS:Material,
  {e1c93523-d913-489b-9ed2-049004bf827c}, !- Handle
  Steel-Framed - 4 in. Studs - 16 in. OC - R-0 Cavity Insulation, ! Name
  Smooth,                                 ! Roughness
  0.0889,                                 ! Thickness {m}
  0.638249853020101,                      ! Conductivity {W/m-K}
  81.3737939397175,                       ! Density {kg/m3}
  628.02;                                 ! Specific Heat {J/kg-K}

OS:ComponentData,
  {c661c89c-731e-41f5-83ce-c55433e54292}, !- Handle
  {37ea50ed-b08c-46fa-92df-b8ee6d82925c}, !- Name
  {fa56a732-cc1e-47ee-a8db-5765f254cd6d}, !- UUID
  {23e330d5-17cd-4490-99b8-13ba8764dfce}, !- Version UUID
  ,                                       !- Creation Timestamp
  ,                                       !- Version Timestamp
  {e1c93523-d913-489b-9ed2-049004bf827c}; !- Name of Object 1

OS:Material,
  {1a2e2c3f-3ccb-46cc-ab29-739c7c6a5d6e}, !- Handle
  Gypsum Board - 1/2 in.,                 ! Name
  MediumSmooth,                           ! Roughness
  0.0127,                                 ! Thickness {m}
  0.16,                                   ! Conductivity {W/m-K}
  800,                                    ! Density {kg/m3}
  1090;                                   ! Specific Heat {J/kg-K}

OS:ComponentData,
  {ec6d261b-fbcf-4648-a3f1-7704b2e320fd}, !- Handle
  {768e8623-c5c9-473f-bc54-9a0dd78b5bd8}, !- Name
  {7efab985-e11a-465b-8fde-9974a0d93c38}, !- UUID
  {3ae27d43-aad6-4e29-b333-7742e3a3b251}, !- Version UUID
  ,                                       !- Creation Timestamp
  ,                                       !- Version Timestamp
  {1a2e2c3f-3ccb-46cc-ab29-739c7c6a5d6e}; !- Name of Object 1

OS:Construction,
  {e725f92a-54a2-4b94-9c38-a44a3f636b64}, !- Handle
  Int floor,                              !- Name
  {bf102fb5-c831-4fe2-b94f-fcfcbfa80077}, !- Surface Rendering Name
  {68a6ae53-d59a-4197-83d4-02d0401cdf65}; !- Layer 1

OS:ComponentData,
  {e7db9136-ce99-4b73-a9bf-8524ff54cf29}, !- Handle
  {11c6f15b-0222-41c0-b0cd-79d3b4b6d415}, !- Name
  {f135dc61-c030-48c2-bcfd-bf2f1e84db95}, !- UUID
  {27d4cac7-02d9-440d-bc68-55fc405ad9f8}, !- Version UUID
  ,                                       !- Creation Timestamp
  ,                                       !- Version Timestamp
  {68a6ae53-d59a-4197-83d4-02d0401cdf65}; !- Name of Object 1

OS:Material,
  {68a6ae53-d59a-4197-83d4-02d0401cdf65}, !- Handle
  Carpet - 1/2 in.,                       ! Name
  MediumRough,                            ! Roughness
  0.0127,                                 ! Thickness {m}
  0.06,                                   ! Conductivity {W/m-K}
  288,                                    ! Density {kg/m3}
  1380;                                   ! Specific Heat {J/kg-K}

OS:Construction,
  {11fb7f56-2a98-436b-9052-d22f48fc4967}, !- Handle
  Ceiling,                                !- Name
  {fabb9dd7-4806-48d7-9b25-d7cd0a35231d}, !- Surface Rendering Name
  {98dcf43a-134c-456d-9918-b5a097bafd32}; !- Layer 1

OS:ComponentData,
  {27e39b26-3964-4248-aa23-68f7641754bf}, !- Handle
  {76745fcb-16c3-4140-ac8e-3b3c51e9d5d4}, !- Name
  {49a0db89-edfb-4c8a-a6ea-de5081b2f98a}, !- UUID
  {8b8840a7-7763-410a-8497-b0262e9a5f16}, !- Version UUID
  ,                                       !- Creation Timestamp
  ,                                       !- Version Timestamp
  {98dcf43a-134c-456d-9918-b5a097bafd32}; !- Name of Object 1

OS:Material,
  {98dcf43a-134c-456d-9918-b5a097bafd32}, !- Handle
  Vegetable Fiber Board  Sound Deadening Board - 1/2 in., ! Name
  Smooth,                                 ! Roughness
  0.0127,                                 ! Thickness {m}
  0.063,                                  ! Conductivity {W/m-K}
  240,                                    ! Density {kg/m3}
  1260;                                   ! Specific Heat {J/kg-K}

OS:Construction,
  {4f6a0758-0040-46a6-98b6-c8e2cbcfb193}, !- Handle
  Exterior wall,                          !- Name
  {1fa08e5c-6e41-49a8-a2b1-999186316d3b}, !- Surface Rendering Name
  {e9bf3384-45de-4ddc-91b7-e08096366107}, !- Layer 1
  {105b6603-d6e1-4466-8e67-4f8edef8fd3a}; !- Layer 2

OS:Material,
  {e9bf3384-45de-4ddc-91b7-e08096366107}, !- Handle
  Brick - Fired Clay - 4 in. - 100 lb/ft3, ! Name
  MediumRough,                            ! Roughness
  0.1016,                                 ! Thickness {m}
  0.675,                                  ! Conductivity {W/m-K}
  1601.84633739601,                       ! Density {kg/m3}
  790;                                    ! Specific Heat {J/kg-K}

OS:ComponentData,
  {09c98d54-dccf-4d26-9bfe-c045b5f98c08}, !- Handle
  {30e3a30d-3854-48fc-a289-053861b93d33}, !- Name
  {e919f798-fc37-498e-b46a-434951f0a770}, !- UUID
  {22ba5d65-463c-4bf5-8539-dc33d3671e85}, !- Version UUID
  ,                                       !- Creation Timestamp
  ,                                       !- Version Timestamp
  {e9bf3384-45de-4ddc-91b7-e08096366107}; !- Name of Object 1

OS:Material,
  {105b6603-d6e1-4466-8e67-4f8edef8fd3a}, !- Handle
  Concrete Block - 12 in. - 85 lb/ft3 - Partly Grouted - Cells Empty, ! Name
  MediumRough,                            ! Roughness
  0.3048,                                 ! Thickness {m}
  0.899982026513123,                      ! Conductivity {W/m-K}
  1361.56938678661,                       ! Density {kg/m3}
  655.111058823529;                       ! Specific Heat {J/kg-K}

OS:ComponentData,
  {d6f67fd0-9705-4632-8b49-283c1a7106af}, !- Handle
  {a256ce6d-fdbd-4ab8-aa3e-6e9286a06607}, !- Name
  {f841bd72-4f17-44f2-851d-825d5fe5ac51}, !- UUID
  {4092fe80-68e1-42a2-bc0d-9671f3416e80}, !- Version UUID
  ,                                       !- Creation Timestamp
  ,                                       !- Version Timestamp
  {105b6603-d6e1-4466-8e67-4f8edef8fd3a}; !- Name of Object 1

OS:Construction,
  {c7f5af4d-1dca-46f1-92f4-58661f73c99c}, !- Handle
  Ext roof,                               !- Name
  {3dd51eed-33d9-4316-9a8c-7c3499b29ee7}, !- Surface Rendering Name
  {187a532d-6f30-4edd-b3df-be4edf3d152b}, !- Layer 1
  {1a2e2c3f-3ccb-46cc-ab29-739c7c6a5d6e}, !- Layer 2
  {efc02033-9dd2-471a-aae1-c93c00ab1755}, !- Layer 3
  {cc7d41fc-047a-4f01-8250-8cfdbd38be8c}; !- Layer 4

OS:Material,
  {187a532d-6f30-4edd-b3df-be4edf3d152b}, !- Handle
  Built-up Roofing - 3/8 in.,             ! Name
  Rough,                                  ! Roughness
  0.009525,                               ! Thickness {m}
  0.16,                                   ! Conductivity {W/m-K}
  1120,                                   ! Density {kg/m3}
  1460;                                   ! Specific Heat {J/kg-K}

OS:ComponentData,
  {adb6f771-dd17-4684-995a-844bf407ef50}, !- Handle
  {6ccee9a2-0c0c-4477-8c50-afc44d024e8e}, !- Name
  {ea7cff06-8eeb-4909-970f-4a5510dec322}, !- UUID
  {64817b4e-076d-4592-88fc-e375787220ef}, !- Version UUID
  ,                                       !- Creation Timestamp
  ,                                       !- Version Timestamp
  {187a532d-6f30-4edd-b3df-be4edf3d152b}; !- Name of Object 1

OS:Material,
  {efc02033-9dd2-471a-aae1-c93c00ab1755}, !- Handle
  Cellular Polyurethane or Polyisocyanurate - Unfaced - 4 in., ! Name
  Rough,                                  ! Roughness
  0.1016,                                 ! Thickness {m}
  0.0245,                                 ! Conductivity {W/m-K}
  24,                                     ! Density {kg/m3}
  1590;                                   ! Specific Heat {J/kg-K}

OS:ComponentData,
  {e4dc0d6b-6c34-4e22-a251-02f7d34de7ae}, !- Handle
  {707dfa22-0665-407c-8d73-421b05a839de}, !- Name
  {a05f17a7-5c3c-4f52-9329-85f1446f9023}, !- UUID
  {191ba9c7-a4d0-4f44-89d8-6821015289aa}, !- Version UUID
  ,                                       !- Creation Timestamp
  ,                                       !- Version Timestamp
  {efc02033-9dd2-471a-aae1-c93c00ab1755}; !- Name of Object 1

OS:Material,
  {cc7d41fc-047a-4f01-8250-8cfdbd38be8c}, !- Handle
  Expanded Polystyrene - Molded Beads - 2 in., ! Name
  VeryRough,                              ! Roughness
  0.0508,                                 ! Thickness {m}
  0.0352,                                 ! Conductivity {W/m-K}
  24,                                     ! Density {kg/m3}
  1210;                                   ! Specific Heat {J/kg-K}

OS:ComponentData,
  {28b1aaf2-1d57-4b92-8390-80116a58b6c3}, !- Handle
  {a501c09f-3a90-490e-999a-1ba0369f11d9}, !- Name
  {a7007fab-a539-494a-9247-3acea835a02a}, !- UUID
  {f6de52f0-4cbf-44f7-a4ef-9a6e9208764a}, !- Version UUID
  ,                                       !- Creation Timestamp
  ,                                       !- Version Timestamp
  {cc7d41fc-047a-4f01-8250-8cfdbd38be8c}; !- Name of Object 1

OS:Schedule:Day,
  {c3709be3-e144-473d-b5fd-d0eb4c207074}, !- Handle
  All Weekends,                           !- Name
  {84125eeb-7d87-42cf-a147-a73fd50f1dce}, !- Schedule Type Limits Name
  ,                                       !- Interpolate to Timestep
  24,                                     !- Hour 1
  0,                                      !- Minute 1
  0.995;                                  !- Value Until Time 1

OS:Schedule:Day,
  {35416fb1-33c9-4a0e-be41-39d2743af072}, !- Handle
  All Weekdays,                           !- Name
  {84125eeb-7d87-42cf-a147-a73fd50f1dce}, !- Schedule Type Limits Name
  ,                                       !- Interpolate to Timestep
  24,                                     !- Hour 1
  0,                                      !- Minute 1
  0.995;                                  !- Value Until Time 1

OS:Schedule:Day,
  {618763f1-8423-495a-9afd-df5c3bcac8a7}, !- Handle
  {d08aa023-aa9a-4880-9595-060b696186cd}, !- Name
  {41db0394-366e-4758-9c6d-7ab988936dd8}, !- Schedule Type Limits Name
  ,                                       !- Interpolate to Timestep
  24,                                     !- Hour 1
  0,                                      !- Minute 1
  23.8888888888889;                       !- Value Until Time 1

OS:Schedule:Day,
  {05e5c11d-b8a0-4808-80aa-8373fe0e28e6}, !- Handle
  {82327547-de3c-45d2-8bd8-11be28c61cdf}, !- Name
  {41db0394-366e-4758-9c6d-7ab988936dd8}, !- Schedule Type Limits Name
  ,                                       !- Interpolate to Timestep
  6,                                      !- Hour 1
  30,                                     !- Minute 1
  23.7777777777778,                       !- Value Until Time 1
  18,                                     !- Hour 2
  0,                                      !- Minute 2
  17.7777777777778,                       !- Value Until Time 2
  24,                                     !- Hour 3
  0,                                      !- Minute 3
  24;                                     !- Value Until Time 3

OS:Schedule:Day,
  {1f73adb7-71fc-423c-afc5-0de14cb15242}, !- Handle
  {7dc9f47a-0019-48da-8258-8de291a3a0c3}, !- Name
  {cf1aa117-a4f4-49ba-b612-647db1a2598d}, !- Schedule Type Limits Name
  ,                                       !- Interpolate to Timestep
  7,                                      !- Hour 1
  0,                                      !- Minute 1
  23.6666666666667,                       !- Value Until Time 1
  17,                                     !- Hour 2
  45,                                     !- Minute 2
  15.3888888888889,                       !- Value Until Time 2
  24,                                     !- Hour 3
  0,                                      !- Minute 3
  23.8888888888889;                       !- Value Until Time 3

OS:Schedule:Day,
  {73f45d65-c8db-4459-b0e8-aba2f6a6dba0}, !- Handle
  {92b15680-093b-4d55-b2ac-39462201003a}, !- Name
  {cf1aa117-a4f4-49ba-b612-647db1a2598d}, !- Schedule Type Limits Name
  ,                                       !- Interpolate to Timestep
  7,                                      !- Hour 1
  15,                                     !- Minute 1
  10,                                     !- Value Until Time 1
  19,                                     !- Hour 2
  0,                                      !- Minute 2
  21.4444444444444,                       !- Value Until Time 2
  24,                                     !- Hour 3
  0,                                      !- Minute 3
  10.0555555555556;                       !- Value Until Time 3

OS:Schedule:Day,
  {62a790ff-abe8-4858-a56b-a29caa65e42f}, !- Handle
  {935c7298-25aa-4edf-ba7e-e62edaa0c0a6}, !- Name
  {39a5a27c-4875-4bcf-8b7d-4cbd95d51067}, !- Schedule Type Limits Name
  ,                                       !- Interpolate to Timestep
  24,                                     !- Hour 1
  0,                                      !- Minute 1
  0.0575;                                 !- Value Until Time 1

OS:Schedule:Day,
  {a900f357-09fd-4b55-a07b-9e2859b26805}, !- Handle
  {22deb637-b880-43c1-b6e8-eb5c20487367}, !- Name
  {39a5a27c-4875-4bcf-8b7d-4cbd95d51067}, !- Schedule Type Limits Name
  ,                                       !- Interpolate to Timestep
  6,                                      !- Hour 1
  15,                                     !- Minute 1
  0.0475,                                 !- Value Until Time 1
  11,                                     !- Hour 2
  30,                                     !- Minute 2
  0.195,                                  !- Value Until Time 2
  13,                                     !- Hour 3
  0,                                      !- Minute 3
  0.39,                                   !- Value Until Time 3
  18,                                     !- Hour 4
  15,                                     !- Minute 4
  0.205,                                  !- Value Until Time 4
  24,                                     !- Hour 5
  0,                                      !- Minute 5
  0.0525;                                 !- Value Until Time 5

OS:Schedule:Day,
  {d99bf63f-33e7-4ce8-b3ad-423da0da3436}, !- Handle
  {d932361b-5f71-4699-9509-e185c3af215b}, !- Name
  {6242e2f6-4d4d-4b16-9843-f33c272445c9}, !- Schedule Type Limits Name
  ,                                       !- Interpolate to Timestep
  6,                                      !- Hour 1
  15,                                     !- Minute 1
  0.195,                                  !- Value Until Time 1
  11,                                     !- Hour 2
  30,                                     !- Minute 2
  0.9075,                                 !- Value Until Time 2
  12,                                     !- Hour 3
  30,                                     !- Minute 3
  0.515,                                  !- Value Until Time 3
  18,                                     !- Hour 4
  0,                                      !- Minute 4
  0.9025,                                 !- Value Until Time 4
  24,                                     !- Hour 5
  0,                                      !- Minute 5
  0.2025;                                 !- Value Until Time 5

OS:Schedule:Day,
  {94d15d9e-8eac-499d-912d-ca3742c79b5f}, !- Handle
  {6f88b44d-d625-4f56-9787-a8d4caf31fd2}, !- Name
  {6242e2f6-4d4d-4b16-9843-f33c272445c9}, !- Schedule Type Limits Name
  ,                                       !- Interpolate to Timestep
  5,                                      !- Hour 1
  45,                                     !- Minute 1
  0.1975,                                 !- Value Until Time 1
  11,                                     !- Hour 2
  0,                                      !- Minute 2
  0.8975,                                 !- Value Until Time 2
  12,                                     !- Hour 3
  0,                                      !- Minute 3
  0.3725,                                 !- Value Until Time 3
  18,                                     !- Hour 4
  0,                                      !- Minute 4
  0.9,                                    !- Value Until Time 4
  24,                                     !- Hour 5
  0,                                      !- Minute 5
  0.2;                                    !- Value Until Time 5

OS:Schedule:Day,
  {6359681a-fadc-4025-befe-68fc359fc255}, !- Handle
  {2fd6211f-91a8-43dd-a34b-c207e6bee30a}, !- Name
  {e0f1651e-8c7e-4ac9-9505-8a3d616989c7}, !- Schedule Type Limits Name
  ,                                       !- Interpolate to Timestep
  24,                                     !- Hour 1
  0,                                      !- Minute 1
  0.1975;                                 !- Value Until Time 1

OS:Schedule:Day,
  {dd4942b8-7c1d-416e-b975-7564bbbdde69}, !- Handle
  {38511ee7-3297-4731-a24b-ca5722ca8f1c}, !- Name
  {e0f1651e-8c7e-4ac9-9505-8a3d616989c7}, !- Schedule Type Limits Name
  ,                                       !- Interpolate to Timestep
  6,                                      !- Hour 1
  0,                                      !- Minute 1
  0.0975,                                 !- Value Until Time 1
  11,                                     !- Hour 2
  45,                                     !- Minute 2
  0.9,                                    !- Value Until Time 2
  13,                                     !- Hour 3
  15,                                     !- Minute 3
  0.5075,                                 !- Value Until Time 3
  18,                                     !- Hour 4
  0,                                      !- Minute 4
  0.895,                                  !- Value Until Time 4
  24,                                     !- Hour 5
  0,                                      !- Minute 5
  0.0875;                                 !- Value Until Time 5

OS:Schedule:Day,
  {26fe7def-3f88-4c4b-ab28-557aad8d662a}, !- Handle
  {e2f5c69f-50d4-4356-8190-3ed91d3b3187}, !- Name
  {fddc592f-1742-4f2a-b26f-17f0a5e2fd9e}, !- Schedule Type Limits Name
  ,                                       !- Interpolate to Timestep
  24,                                     !- Hour 1
  0,                                      !- Minute 1
  0.9025;                                 !- Value Until Time 1

OS:Schedule:Day,
  {3b8b9730-9713-4065-92b6-d0ee3065523a}, !- Handle
  {cb987561-8f8b-4719-b82c-cc6a650781a1}, !- Name
  {fddc592f-1742-4f2a-b26f-17f0a5e2fd9e}, !- Schedule Type Limits Name
  ,                                       !- Interpolate to Timestep
  24,                                     !- Hour 1
  0,                                      !- Minute 1
  0.89;                                   !- Value Until Time 1

OS:Schedule:Ruleset,
  {61db8bdf-26c8-4f6b-ba79-f524cde1648e}, !- Handle
  Hvac,                                   !- Name
  {84125eeb-7d87-42cf-a147-a73fd50f1dce}, !- Schedule Type Limits Name
  {f87d75a6-db75-4712-a5f1-4e8fe5f86683}, !- Default Day Schedule Name
  {d4cdfc24-d007-4891-9b33-290ce48bc3cb}, !- Summer Design Day Schedule Name
  {0ccb8f02-2eba-43ad-a56b-9528ec77f009}; !- Winter Design Day Schedule Name

OS:Schedule:Day,
  {f87d75a6-db75-4712-a5f1-4e8fe5f86683}, !- Handle
  {fb9c5747-16c0-41a3-9070-659569688f36}, !- Name
  {84125eeb-7d87-42cf-a147-a73fd50f1dce}, !- Schedule Type Limits Name
  ,                                       !- Interpolate to Timestep
  24,                                     !- Hour 1
  0,                                      !- Minute 1
  0;                                      !- Value Until Time 1

OS:Schedule:Rule,
  {812c38bc-d9a2-434a-aa59-20a2b2a7ac58}, !- Handle
  Hvac Default Weekday Schedule,          !- Name
  {61db8bdf-26c8-4f6b-ba79-f524cde1648e}, !- Schedule Ruleset Name
  1,                                      !- Rule Order
  {c578ca43-6337-433c-adb2-acb5b96e29bb}, !- Day Schedule Name
  No,                                     !- Apply Sunday
  Yes,                                    !- Apply Monday
  Yes,                                    !- Apply Tuesday
  Yes,                                    !- Apply Wednesday
  Yes,                                    !- Apply Thursday
  Yes,                                    !- Apply Friday
  No;                                     !- Apply Saturday

OS:Schedule:Day,
  {c578ca43-6337-433c-adb2-acb5b96e29bb}, !- Handle
  {4622df9f-d36b-4b58-8a2a-61688cc671ca}, !- Name
  {84125eeb-7d87-42cf-a147-a73fd50f1dce}, !- Schedule Type Limits Name
  ,                                       !- Interpolate to Timestep
  24,                                     !- Hour 1
  0,                                      !- Minute 1
  0.995;                                  !- Value Until Time 1

OS:Schedule:Rule,
  {f0ab2ddf-3ef0-45c8-bf55-5df6d97bdb0e}, !- Handle
  Hvac Default Weekend Schedule,          !- Name
  {61db8bdf-26c8-4f6b-ba79-f524cde1648e}, !- Schedule Ruleset Name
  0,                                      !- Rule Order
  {54704410-5e15-44b1-94d2-588262813590}, !- Day Schedule Name
  Yes,                                    !- Apply Sunday
  No,                                     !- Apply Monday
  No,                                     !- Apply Tuesday
  No,                                     !- Apply Wednesday
  No,                                     !- Apply Thursday
  No,                                     !- Apply Friday
  Yes;                                    !- Apply Saturday

OS:Schedule:Day,
  {54704410-5e15-44b1-94d2-588262813590}, !- Handle
  {e58995fa-62a2-43b2-b8ca-65d506e6a0bb}, !- Name
  {84125eeb-7d87-42cf-a147-a73fd50f1dce}, !- Schedule Type Limits Name
  ,                                       !- Interpolate to Timestep
  24,                                     !- Hour 1
  0,                                      !- Minute 1
  0.995;                                  !- Value Until Time 1

OS:Schedule:Day,
  {77ce2a8f-8845-41ff-8b63-bfade6184098}, !- Handle
  Hvac Winter Design Day,                 !- Name
  ,                                       !- Schedule Type Limits Name
  ,                                       !- Interpolate to Timestep
  24,                                     !- Hour 1
  0,                                      !- Minute 1
  0.995;                                  !- Value Until Time 1

OS:Schedule:Day,
  {0ccb8f02-2eba-43ad-a56b-9528ec77f009}, !- Handle
  {86ccd1ad-b98d-4508-a2ad-71d9d6dd66b8}, !- Name
  {84125eeb-7d87-42cf-a147-a73fd50f1dce}, !- Schedule Type Limits Name
  ,                                       !- Interpolate to Timestep
  24,                                     !- Hour 1
  0,                                      !- Minute 1
  0.995;                                  !- Value Until Time 1

OS:Schedule:Day,
  {3e273cb3-d016-4633-ab36-e6bae2610354}, !- Handle
  Hvac Summer Design Day,                 !- Name
  ,                                       !- Schedule Type Limits Name
  ,                                       !- Interpolate to Timestep
  24,                                     !- Hour 1
  0,                                      !- Minute 1
  0.995;                                  !- Value Until Time 1

OS:Schedule:Day,
  {d4cdfc24-d007-4891-9b33-290ce48bc3cb}, !- Handle
  {0dc53e9e-e7f0-4873-a323-a70b21f84495}, !- Name
  {84125eeb-7d87-42cf-a147-a73fd50f1dce}, !- Schedule Type Limits Name
  ,                                       !- Interpolate to Timestep
  24,                                     !- Hour 1
  0,                                      !- Minute 1
  0.995;                                  !- Value Until Time 1

OS:Schedule:Ruleset,
  {cd21dcea-7422-4e6e-b4a5-efa4bc3167f7}, !- Handle
  Bldg lvl cooling,                       !- Name
  {41db0394-366e-4758-9c6d-7ab988936dd8}, !- Schedule Type Limits Name
  {ee7542c5-1d42-48bf-a7d3-29f04acf950d}, !- Default Day Schedule Name
  {61ac3750-0f0c-48b4-945e-c2efafc89d7b}, !- Summer Design Day Schedule Name
  {f5ef36bb-ecd8-47e6-a883-2f20925b422b}; !- Winter Design Day Schedule Name

OS:Schedule:Day,
  {ee7542c5-1d42-48bf-a7d3-29f04acf950d}, !- Handle
  {a01c4ede-1f21-4e59-aeb2-bdf559f4dd46}, !- Name
  {41db0394-366e-4758-9c6d-7ab988936dd8}, !- Schedule Type Limits Name
  ,                                       !- Interpolate to Timestep
  24,                                     !- Hour 1
  0,                                      !- Minute 1
  0;                                      !- Value Until Time 1

OS:Schedule:Rule,
  {be3f3b82-21e6-4c1d-8526-8c0675d2c025}, !- Handle
  Bldg lvl cooling  Default Weekday Schedule, !- Name